GH     1   100  2.00000E+00  2.00000E+01  5.00000E+00  5.00000E+00  5.00000E+00  5.00000E+00  2.50000E-03
GM     1     1  0.00000E+00  0.00000E+00  1.80000E+02  0.00000E+00  0.00000E+00  0.00000E+00  0.00000E+00
GW     3    20 -5.00000E+00  0.00000E+00  2.00000E+01  5.00000E+00  0.00000E+00  2.00000E+01  2.50000E-03
GE     0
FR     0     1     0     0  4.06000E+02  0.00000E+00
EX     0     1     1     0  1.00000E+00  0.00000E+00
EX     0     2     1     0 -1.00000E+00  0.00000E+00
RP     0    37    72  1000  0.00000E+00  0.00000E+00  5.00000E+00  5.00000E+02
