


                                __________________________________________
                               |                                          |
                               | NUMERICAL ELECTROMAGNETICS CODE (nec2++) |
                               | Implemented in 'C++' in Double Precision |
                               |        Version 1.7.2b1 [2017-08-05]        |
                               |__________________________________________|



                                -------- STRUCTURE SPECIFICATION --------
                                COORDINATES MUST BE INPUT IN
                                METERS OR BE SCALED TO METERS
                                BEFORE STRUCTURE INPUT IS ENDED
  WIRE                                                                                 SEG FIRST  LAST  TAG
   No:        X1         Y1         Z1         X2         Y2         Z2       RADIUS   No:   SEG   SEG  No:

     1 HELIX STRUCTURE - SPACING OF TURNS:    5.000 AXIAL LENGTH:   40.000     0.003   100     1   100    1
       RADIUS X1:  20.000 Y1:  20.000 X2:  20.000 Y2:  20.000 
       THE PITCH ANGLE IS: 2.2785    THE LENGTH OF WIRE/TURN IS: 125.7631
     THE STRUCTURE HAS BEEN MOVED, MOVE DATA CARD IS:
     1     1    0.00000    0.00000  180.00000    0.00000    0.00000    0.00000    0.00000

     TOTAL SEGMENTS USED: 200   SEGMENTS IN A SYMMETRIC CELL: 200   SYMMETRY FLAG: 0


                               ---------- SEGMENTATION DATA ----------
                                        COORDINATES IN METERS
                            I+ AND I- INDICATE THE SEGMENTS BEFORE AND AFTER I

   SEG    COORDINATES OF SEGM CENTER     SEGM    ORIENTATION ANGLES    WIRE    CONNECTION DATA   TAG
   No:       X         Y         Z      LENGTH     ALPHA      BETA    RADIUS    I-     I    I+   NO:
     1   18.7631    4.8175    0.2000    9.9556    2.3027  104.4000    0.0025     0     1     2     1
     2   14.1213   13.2608    0.6000    9.9556    2.3027  133.2000    0.0025     1     2     3     1
     3    5.9862   18.4235    1.0000    9.9556    2.3027  162.0000    0.0025     2     3     4     1
     4   -3.6299   19.0285    1.4000    9.9556    2.3027 -169.2000    0.0025     3     4     5     1
     5  -12.3480   14.9261    1.8000    9.9556    2.3027 -140.4000    0.0025     4     5     6     1
     6  -18.0113    7.1312    2.2000    9.9556    2.3027 -111.6000    0.0025     5     6     7     1
     7  -19.2189   -2.4279    2.6000    9.9556    2.3027  -82.8000    0.0025     6     7     8     1
     8  -15.6720  -11.3864    3.0000    9.9556    2.3027  -54.0000    0.0025     7     8     9     1
     9   -8.2481  -17.5280    3.4000    9.9556    2.3027  -25.2000    0.0025     8     9    10     1
    10    1.2164  -19.3334    3.8000    9.9556    2.3027    3.6000    0.0025     9    10    11     1
    11   10.3799  -16.3560    4.2000    9.9556    2.3027   32.4000    0.0025    10    11    12     1
    12   16.9755   -9.3324    4.6000    9.9556    2.3027   61.2000    0.0025    11    12    13     1
    13   19.3717    0.0000    5.0000    9.9556    2.3027   90.0000    0.0025    12    13    14     1
    14   16.9755    9.3324    5.4000    9.9556    2.3027  118.8000    0.0025    13    14    15     1
    15   10.3799   16.3560    5.8000    9.9556    2.3027  147.6000    0.0025    14    15    16     1
    16    1.2164   19.3334    6.2000    9.9556    2.3027  176.4000    0.0025    15    16    17     1
    17   -8.2481   17.5280    6.6000    9.9556    2.3027 -154.8000    0.0025    16    17    18     1
    18  -15.6720   11.3864    7.0000    9.9556    2.3027 -126.0000    0.0025    17    18    19     1
    19  -19.2189    2.4279    7.4000    9.9556    2.3027  -97.2000    0.0025    18    19    20     1
    20  -18.0113   -7.1312    7.8000    9.9556    2.3027  -68.4000    0.0025    19    20    21     1
    21  -12.3480  -14.9261    8.2000    9.9556    2.3027  -39.6000    0.0025    20    21    22     1
    22   -3.6299  -19.0285    8.6000    9.9556    2.3027  -10.8000    0.0025    21    22    23     1
    23    5.9862  -18.4235    9.0000    9.9556    2.3027   18.0000    0.0025    22    23    24     1
    24   14.1213  -13.2608    9.4000    9.9556    2.3027   46.8000    0.0025    23    24    25     1
    25   18.7631   -4.8175    9.8000    9.9556    2.3027   75.6000    0.0025    24    25    26     1
    26   18.7631    4.8175   10.2000    9.9556    2.3027  104.4000    0.0025    25    26    27     1
    27   14.1213   13.2608   10.6000    9.9556    2.3027  133.2000    0.0025    26    27    28     1
    28    5.9862   18.4235   11.0000    9.9556    2.3027  162.0000    0.0025    27    28    29     1
    29   -3.6299   19.0285   11.4000    9.9556    2.3027 -169.2000    0.0025    28    29    30     1
    30  -12.3480   14.9261   11.8000    9.9556    2.3027 -140.4000    0.0025    29    30    31     1
    31  -18.0113    7.1312   12.2000    9.9556    2.3027 -111.6000    0.0025    30    31    32     1
    32  -19.2189   -2.4279   12.6000    9.9556    2.3027  -82.8000    0.0025    31    32    33     1
    33  -15.6720  -11.3864   13.0000    9.9556    2.3027  -54.0000    0.0025    32    33    34     1
    34   -8.2481  -17.5280   13.4000    9.9556    2.3027  -25.2000    0.0025    33    34    35     1
    35    1.2164  -19.3334   13.8000    9.9556    2.3027    3.6000    0.0025    34    35    36     1
    36   10.3799  -16.3560   14.2000    9.9556    2.3027   32.4000    0.0025    35    36    37     1
    37   16.9755   -9.3324   14.6000    9.9556    2.3027   61.2000    0.0025    36    37    38     1
    38   19.3717    0.0000   15.0000    9.9556    2.3027   90.0000    0.0025    37    38    39     1
    39   16.9755    9.3324   15.4000    9.9556    2.3027  118.8000    0.0025    38    39    40     1
    40   10.3799   16.3560   15.8000    9.9556    2.3027  147.6000    0.0025    39    40    41     1
    41    1.2164   19.3334   16.2000    9.9556    2.3027  176.4000    0.0025    40    41    42     1
    42   -8.2481   17.5280   16.6000    9.9556    2.3027 -154.8000    0.0025    41    42    43     1
    43  -15.6720   11.3864   17.0000    9.9556    2.3027 -126.0000    0.0025    42    43    44     1
    44  -19.2189    2.4279   17.4000    9.9556    2.3027  -97.2000    0.0025    43    44    45     1
    45  -18.0113   -7.1312   17.8000    9.9556    2.3027  -68.4000    0.0025    44    45    46     1
    46  -12.3480  -14.9261   18.2000    9.9556    2.3027  -39.6000    0.0025    45    46    47     1
    47   -3.6299  -19.0285   18.6000    9.9556    2.3027  -10.8000    0.0025    46    47    48     1
    48    5.9862  -18.4235   19.0000    9.9556    2.3027   18.0000    0.0025    47    48    49     1
    49   14.1213  -13.2608   19.4000    9.9556    2.3027   46.8000    0.0025    48    49    50     1
    50   18.7631   -4.8175   19.8000    9.9556    2.3027   75.6000    0.0025    49    50    51     1
    51   18.7631    4.8175   20.2000    9.9556    2.3027  104.4000    0.0025    50    51    52     1
    52   14.1213   13.2608   20.6000    9.9556    2.3027  133.2000    0.0025    51    52    53     1
    53    5.9862   18.4235   21.0000    9.9556    2.3027  162.0000    0.0025    52    53    54     1
    54   -3.6299   19.0285   21.4000    9.9556    2.3027 -169.2000    0.0025    53    54    55     1
    55  -12.3480   14.9261   21.8000    9.9556    2.3027 -140.4000    0.0025    54    55    56     1
    56  -18.0113    7.1312   22.2000    9.9556    2.3027 -111.6000    0.0025    55    56    57     1
    57  -19.2189   -2.4279   22.6000    9.9556    2.3027  -82.8000    0.0025    56    57    58     1
    58  -15.6720  -11.3864   23.0000    9.9556    2.3027  -54.0000    0.0025    57    58    59     1
    59   -8.2481  -17.5280   23.4000    9.9556    2.3027  -25.2000    0.0025    58    59    60     1
    60    1.2164  -19.3334   23.8000    9.9556    2.3027    3.6000    0.0025    59    60    61     1
    61   10.3799  -16.3560   24.2000    9.9556    2.3027   32.4000    0.0025    60    61    62     1
    62   16.9755   -9.3324   24.6000    9.9556    2.3027   61.2000    0.0025    61    62    63     1
    63   19.3717    0.0000   25.0000    9.9556    2.3027   90.0000    0.0025    62    63    64     1
    64   16.9755    9.3324   25.4000    9.9556    2.3027  118.8000    0.0025    63    64    65     1
    65   10.3799   16.3560   25.8000    9.9556    2.3027  147.6000    0.0025    64    65    66     1
    66    1.2164   19.3334   26.2000    9.9556    2.3027  176.4000    0.0025    65    66    67     1
    67   -8.2481   17.5280   26.6000    9.9556    2.3027 -154.8000    0.0025    66    67    68     1
    68  -15.6720   11.3864   27.0000    9.9556    2.3027 -126.0000    0.0025    67    68    69     1
    69  -19.2189    2.4279   27.4000    9.9556    2.3027  -97.2000    0.0025    68    69    70     1
    70  -18.0113   -7.1312   27.8000    9.9556    2.3027  -68.4000    0.0025    69    70    71     1
    71  -12.3480  -14.9261   28.2000    9.9556    2.3027  -39.6000    0.0025    70    71    72     1
    72   -3.6299  -19.0285   28.6000    9.9556    2.3027  -10.8000    0.0025    71    72    73     1
    73    5.9862  -18.4235   29.0000    9.9556    2.3027   18.0000    0.0025    72    73    74     1
    74   14.1213  -13.2608   29.4000    9.9556    2.3027   46.8000    0.0025    73    74    75     1
    75   18.7631   -4.8175   29.8000    9.9556    2.3027   75.6000    0.0025    74    75    76     1
    76   18.7631    4.8175   30.2000    9.9556    2.3027  104.4000    0.0025    75    76    77     1
    77   14.1213   13.2608   30.6000    9.9556    2.3027  133.2000    0.0025    76    77    78     1
    78    5.9862   18.4235   31.0000    9.9556    2.3027  162.0000    0.0025    77    78    79     1
    79   -3.6299   19.0285   31.4000    9.9556    2.3027 -169.2000    0.0025    78    79    80     1
    80  -12.3480   14.9261   31.8000    9.9556    2.3027 -140.4000    0.0025    79    80    81     1
    81  -18.0113    7.1312   32.2000    9.9556    2.3027 -111.6000    0.0025    80    81    82     1
    82  -19.2189   -2.4279   32.6000    9.9556    2.3027  -82.8000    0.0025    81    82    83     1
    83  -15.6720  -11.3864   33.0000    9.9556    2.3027  -54.0000    0.0025    82    83    84     1
    84   -8.2481  -17.5280   33.4000    9.9556    2.3027  -25.2000    0.0025    83    84    85     1
    85    1.2164  -19.3334   33.8000    9.9556    2.3027    3.6000    0.0025    84    85    86     1
    86   10.3799  -16.3560   34.2000    9.9556    2.3027   32.4000    0.0025    85    86    87     1
    87   16.9755   -9.3324   34.6000    9.9556    2.3027   61.2000    0.0025    86    87    88     1
    88   19.3717    0.0000   35.0000    9.9556    2.3027   90.0000    0.0025    87    88    89     1
    89   16.9755    9.3324   35.4000    9.9556    2.3027  118.8000    0.0025    88    89    90     1
    90   10.3799   16.3560   35.8000    9.9556    2.3027  147.6000    0.0025    89    90    91     1
    91    1.2164   19.3334   36.2000    9.9556    2.3027  176.4000    0.0025    90    91    92     1
    92   -8.2481   17.5280   36.6000    9.9556    2.3027 -154.8000    0.0025    91    92    93     1
    93  -15.6720   11.3864   37.0000    9.9556    2.3027 -126.0000    0.0025    92    93    94     1
    94  -19.2189    2.4279   37.4000    9.9556    2.3027  -97.2000    0.0025    93    94    95     1
    95  -18.0113   -7.1312   37.8000    9.9556    2.3027  -68.4000    0.0025    94    95    96     1
    96  -12.3480  -14.9261   38.2000    9.9556    2.3027  -39.6000    0.0025    95    96    97     1
    97   -3.6299  -19.0285   38.6000    9.9556    2.3027  -10.8000    0.0025    96    97    98     1
    98    5.9862  -18.4235   39.0000    9.9556    2.3027   18.0000    0.0025    97    98    99     1
    99   14.1213  -13.2608   39.4000    9.9556    2.3027   46.8000    0.0025    98    99   100     1
   100   18.7631   -4.8175   39.8000    9.9556    2.3027   75.6000    0.0025    99   100     0     1
   101  -18.7631   -4.8175    0.2000    9.9556    2.3027  -75.6000    0.0025     0   101   102     2
   102  -14.1213  -13.2608    0.6000    9.9556    2.3027  -46.8000    0.0025   101   102   103     2
   103   -5.9862  -18.4235    1.0000    9.9556    2.3027  -18.0000    0.0025   102   103   104     2
   104    3.6299  -19.0285    1.4000    9.9556    2.3027   10.8000    0.0025   103   104   105     2
   105   12.3480  -14.9261    1.8000    9.9556    2.3027   39.6000    0.0025   104   105   106     2
   106   18.0113   -7.1312    2.2000    9.9556    2.3027   68.4000    0.0025   105   106   107     2
   107   19.2189    2.4279    2.6000    9.9556    2.3027   97.2000    0.0025   106   107   108     2
   108   15.6720   11.3864    3.0000    9.9556    2.3027  126.0000    0.0025   107   108   109     2
   109    8.2481   17.5280    3.4000    9.9556    2.3027  154.8000    0.0025   108   109   110     2
   110   -1.2164   19.3334    3.8000    9.9556    2.3027 -176.4000    0.0025   109   110   111     2
   111  -10.3799   16.3560    4.2000    9.9556    2.3027 -147.6000    0.0025   110   111   112     2
   112  -16.9755    9.3324    4.6000    9.9556    2.3027 -118.8000    0.0025   111   112   113     2
   113  -19.3717   -0.0000    5.0000    9.9556    2.3027  -90.0000    0.0025   112   113   114     2
   114  -16.9755   -9.3324    5.4000    9.9556    2.3027  -61.2000    0.0025   113   114   115     2
   115  -10.3799  -16.3560    5.8000    9.9556    2.3027  -32.4000    0.0025   114   115   116     2
   116   -1.2164  -19.3334    6.2000    9.9556    2.3027   -3.6000    0.0025   115   116   117     2
   117    8.2481  -17.5280    6.6000    9.9556    2.3027   25.2000    0.0025   116   117   118     2
   118   15.6720  -11.3864    7.0000    9.9556    2.3027   54.0000    0.0025   117   118   119     2
   119   19.2189   -2.4279    7.4000    9.9556    2.3027   82.8000    0.0025   118   119   120     2
   120   18.0113    7.1312    7.8000    9.9556    2.3027  111.6000    0.0025   119   120   121     2
   121   12.3480   14.9261    8.2000    9.9556    2.3027  140.4000    0.0025   120   121   122     2
   122    3.6299   19.0285    8.6000    9.9556    2.3027  169.2000    0.0025   121   122   123     2
   123   -5.9862   18.4235    9.0000    9.9556    2.3027 -162.0000    0.0025   122   123   124     2
   124  -14.1213   13.2608    9.4000    9.9556    2.3027 -133.2000    0.0025   123   124   125     2
   125  -18.7631    4.8175    9.8000    9.9556    2.3027 -104.4000    0.0025   124   125   126     2
   126  -18.7631   -4.8175   10.2000    9.9556    2.3027  -75.6000    0.0025   125   126   127     2
   127  -14.1213  -13.2608   10.6000    9.9556    2.3027  -46.8000    0.0025   126   127   128     2
   128   -5.9862  -18.4235   11.0000    9.9556    2.3027  -18.0000    0.0025   127   128   129     2
   129    3.6299  -19.0285   11.4000    9.9556    2.3027   10.8000    0.0025   128   129   130     2
   130   12.3480  -14.9261   11.8000    9.9556    2.3027   39.6000    0.0025   129   130   131     2
   131   18.0113   -7.1312   12.2000    9.9556    2.3027   68.4000    0.0025   130   131   132     2
   132   19.2189    2.4279   12.6000    9.9556    2.3027   97.2000    0.0025   131   132   133     2
   133   15.6720   11.3864   13.0000    9.9556    2.3027  126.0000    0.0025   132   133   134     2
   134    8.2481   17.5280   13.4000    9.9556    2.3027  154.8000    0.0025   133   134   135     2
   135   -1.2164   19.3334   13.8000    9.9556    2.3027 -176.4000    0.0025   134   135   136     2
   136  -10.3799   16.3560   14.2000    9.9556    2.3027 -147.6000    0.0025   135   136   137     2
   137  -16.9755    9.3324   14.6000    9.9556    2.3027 -118.8000    0.0025   136   137   138     2
   138  -19.3717   -0.0000   15.0000    9.9556    2.3027  -90.0000    0.0025   137   138   139     2
   139  -16.9755   -9.3324   15.4000    9.9556    2.3027  -61.2000    0.0025   138   139   140     2
   140  -10.3799  -16.3560   15.8000    9.9556    2.3027  -32.4000    0.0025   139   140   141     2
   141   -1.2164  -19.3334   16.2000    9.9556    2.3027   -3.6000    0.0025   140   141   142     2
   142    8.2481  -17.5280   16.6000    9.9556    2.3027   25.2000    0.0025   141   142   143     2
   143   15.6720  -11.3864   17.0000    9.9556    2.3027   54.0000    0.0025   142   143   144     2
   144   19.2189   -2.4279   17.4000    9.9556    2.3027   82.8000    0.0025   143   144   145     2
   145   18.0113    7.1312   17.8000    9.9556    2.3027  111.6000    0.0025   144   145   146     2
   146   12.3480   14.9261   18.2000    9.9556    2.3027  140.4000    0.0025   145   146   147     2
   147    3.6299   19.0285   18.6000    9.9556    2.3027  169.2000    0.0025   146   147   148     2
   148   -5.9862   18.4235   19.0000    9.9556    2.3027 -162.0000    0.0025   147   148   149     2
   149  -14.1213   13.2608   19.4000    9.9556    2.3027 -133.2000    0.0025   148   149   150     2
   150  -18.7631    4.8175   19.8000    9.9556    2.3027 -104.4000    0.0025   149   150   151     2
   151  -18.7631   -4.8175   20.2000    9.9556    2.3027  -75.6000    0.0025   150   151   152     2
   152  -14.1213  -13.2608   20.6000    9.9556    2.3027  -46.8000    0.0025   151   152   153     2
   153   -5.9862  -18.4235   21.0000    9.9556    2.3027  -18.0000    0.0025   152   153   154     2
   154    3.6299  -19.0285   21.4000    9.9556    2.3027   10.8000    0.0025   153   154   155     2
   155   12.3480  -14.9261   21.8000    9.9556    2.3027   39.6000    0.0025   154   155   156     2
   156   18.0113   -7.1312   22.2000    9.9556    2.3027   68.4000    0.0025   155   156   157     2
   157   19.2189    2.4279   22.6000    9.9556    2.3027   97.2000    0.0025   156   157   158     2
   158   15.6720   11.3864   23.0000    9.9556    2.3027  126.0000    0.0025   157   158   159     2
   159    8.2481   17.5280   23.4000    9.9556    2.3027  154.8000    0.0025   158   159   160     2
   160   -1.2164   19.3334   23.8000    9.9556    2.3027 -176.4000    0.0025   159   160   161     2
   161  -10.3799   16.3560   24.2000    9.9556    2.3027 -147.6000    0.0025   160   161   162     2
   162  -16.9755    9.3324   24.6000    9.9556    2.3027 -118.8000    0.0025   161   162   163     2
   163  -19.3717   -0.0000   25.0000    9.9556    2.3027  -90.0000    0.0025   162   163   164     2
   164  -16.9755   -9.3324   25.4000    9.9556    2.3027  -61.2000    0.0025   163   164   165     2
   165  -10.3799  -16.3560   25.8000    9.9556    2.3027  -32.4000    0.0025   164   165   166     2
   166   -1.2164  -19.3334   26.2000    9.9556    2.3027   -3.6000    0.0025   165   166   167     2
   167    8.2481  -17.5280   26.6000    9.9556    2.3027   25.2000    0.0025   166   167   168     2
   168   15.6720  -11.3864   27.0000    9.9556    2.3027   54.0000    0.0025   167   168   169     2
   169   19.2189   -2.4279   27.4000    9.9556    2.3027   82.8000    0.0025   168   169   170     2
   170   18.0113    7.1312   27.8000    9.9556    2.3027  111.6000    0.0025   169   170   171     2
   171   12.3480   14.9261   28.2000    9.9556    2.3027  140.4000    0.0025   170   171   172     2
   172    3.6299   19.0285   28.6000    9.9556    2.3027  169.2000    0.0025   171   172   173     2
   173   -5.9862   18.4235   29.0000    9.9556    2.3027 -162.0000    0.0025   172   173   174     2
   174  -14.1213   13.2608   29.4000    9.9556    2.3027 -133.2000    0.0025   173   174   175     2
   175  -18.7631    4.8175   29.8000    9.9556    2.3027 -104.4000    0.0025   174   175   176     2
   176  -18.7631   -4.8175   30.2000    9.9556    2.3027  -75.6000    0.0025   175   176   177     2
   177  -14.1213  -13.2608   30.6000    9.9556    2.3027  -46.8000    0.0025   176   177   178     2
   178   -5.9862  -18.4235   31.0000    9.9556    2.3027  -18.0000    0.0025   177   178   179     2
   179    3.6299  -19.0285   31.4000    9.9556    2.3027   10.8000    0.0025   178   179   180     2
   180   12.3480  -14.9261   31.8000    9.9556    2.3027   39.6000    0.0025   179   180   181     2
   181   18.0113   -7.1312   32.2000    9.9556    2.3027   68.4000    0.0025   180   181   182     2
   182   19.2189    2.4279   32.6000    9.9556    2.3027   97.2000    0.0025   181   182   183     2
   183   15.6720   11.3864   33.0000    9.9556    2.3027  126.0000    0.0025   182   183   184     2
   184    8.2481   17.5280   33.4000    9.9556    2.3027  154.8000    0.0025   183   184   185     2
   185   -1.2164   19.3334   33.8000    9.9556    2.3027 -176.4000    0.0025   184   185   186     2
   186  -10.3799   16.3560   34.2000    9.9556    2.3027 -147.6000    0.0025   185   186   187     2
   187  -16.9755    9.3324   34.6000    9.9556    2.3027 -118.8000    0.0025   186   187   188     2
   188  -19.3717   -0.0000   35.0000    9.9556    2.3027  -90.0000    0.0025   187   188   189     2
   189  -16.9755   -9.3324   35.4000    9.9556    2.3027  -61.2000    0.0025   188   189   190     2
   190  -10.3799  -16.3560   35.8000    9.9556    2.3027  -32.4000    0.0025   189   190   191     2
   191   -1.2164  -19.3334   36.2000    9.9556    2.3027   -3.6000    0.0025   190   191   192     2
   192    8.2481  -17.5280   36.6000    9.9556    2.3027   25.2000    0.0025   191   192   193     2
   193   15.6720  -11.3864   37.0000    9.9556    2.3027   54.0000    0.0025   192   193   194     2
   194   19.2189   -2.4279   37.4000    9.9556    2.3027   82.8000    0.0025   193   194   195     2
   195   18.0113    7.1312   37.8000    9.9556    2.3027  111.6000    0.0025   194   195   196     2
   196   12.3480   14.9261   38.2000    9.9556    2.3027  140.4000    0.0025   195   196   197     2
   197    3.6299   19.0285   38.6000    9.9556    2.3027  169.2000    0.0025   196   197   198     2
   198   -5.9862   18.4235   39.0000    9.9556    2.3027 -162.0000    0.0025   197   198   199     2
   199  -14.1213   13.2608   39.4000    9.9556    2.3027 -133.2000    0.0025   198   199   200     2
   200  -18.7631    4.8175   39.8000    9.9556    2.3027 -104.4000    0.0025   199   200     0     2



*****  DATA CARD N0.   1 FR   0     1     0     0  4.06000E+02  0.00000E+00  0.00000E+00  0.00000E+00  0.00000E+00  0.00000E+00
*****  DATA CARD N0.   2 EX   0     1     1     0  1.00000E+00  0.00000E+00  0.00000E+00  0.00000E+00  0.00000E+00  0.00000E+00
*****  DATA CARD N0.   3 EX   0     2     1     0 -1.00000E+00  0.00000E+00  0.00000E+00  0.00000E+00  0.00000E+00  0.00000E+00
*****  DATA CARD N0.   4 RP   0   101   201     0  0.00000E+00  0.00000E+00  1.80000E+00  1.80000E+00  0.00000E+00  0.00000E+00


                               --------- FREQUENCY --------
                               FREQUENCY=  4.0600E+02 MHZ
                               WAVELENGTH= 7.3841E-01 METERS


                        APPROXIMATE INTEGRATION EMPLOYED FOR SEGMENTS
                        THAT ARE MORE THAN 1.000 WAVELENGTHS APART



                          ------ STRUCTURE IMPEDANCE LOADING ------
                                 THIS STRUCTURE IS NOT LOADED



                            -------- ANTENNA ENVIRONMENT --------
                            FREE SPACE



                             ---------- MATRIX TIMING ----------
                               FILL= 20 msec  FACTOR: 10 msec


  TAG   SEG       VOLTAGE (VOLTS)         CURRENT (AMPS)         IMPEDANCE (OHMS)        ADMITTANCE (MHOS)     POWER
  NO.   NO.     REAL      IMAGINARY     REAL      IMAGINARY     REAL      IMAGINARY    REAL       IMAGINARY   (WATTS)
   1,    1, 1.0000E+00, 0.0000E+00, 6.8330E-05,-6.3130E-05, 7.8955E+03, 7.2946E+03, 6.8330E-05,-6.3130E-05, 3.4165E-05
   2,  101,-1.0000E+00, 0.0000E+00,-6.8330E-05, 6.3130E-05, 7.8955E+03, 7.2946E+03, 6.8330E-05,-6.3130E-05, 3.4165E-05







                            DISTANCES IN WAVELENGTHS 

   SEG  TAG    COORDINATES OF SEGM CENTER     SEGM    ------------- CURRENT (AMPS) -------------
   No:  No:       X         Y         Z      LENGTH     REAL      IMAGINARY    MAGN        PHASE
    1,   1,  25.4100,   6.5242,   0.2709, 13.48248, 6.8330E-05,-6.3130E-05, 9.3029E-05, -42.735,
    2,   1,  19.1239,  17.9585,   0.8126, 13.48248,-5.4568E-05, 2.3726E-05, 5.9503E-05, 156.501,
    3,   1,   8.1068,  24.9502,   1.3543, 13.48248, 5.4906E-05,-3.2851E-05, 6.3984E-05, -30.893,
    4,   1,  -4.9158,  25.7695,   1.8960, 13.48248,-5.7302E-05, 4.2928E-05, 7.1599E-05, 143.161,
    5,   1, -16.7223,  20.2138,   2.4377, 13.48248, 5.9637E-05,-5.1122E-05, 7.8549E-05, -40.604,
    6,   1, -24.3919,   9.6574,   2.9794, 13.48248,-5.8552E-05, 5.8128E-05, 8.2506E-05, 135.208,
    7,   1, -26.0273,  -3.2880,   3.5211, 13.48248, 5.9390E-05,-5.5355E-05, 8.1187E-05, -42.986,
    8,   1, -21.2239, -15.4201,   4.0628, 13.48248,-5.7853E-05, 7.3999E-05, 9.3930E-05, 128.019,
    9,   1, -11.1700, -23.7374,   4.6045, 13.48248, 5.7178E-05,-7.4310E-05, 9.3762E-05, -52.424,
   10,   1,   1.6473, -26.1824,   5.1462, 13.48248,-5.4885E-05, 7.7490E-05, 9.4958E-05, 125.310,
   11,   1,  14.0570, -22.1503,   5.6879, 13.48248, 4.9906E-05,-7.9979E-05, 9.4272E-05, -58.036,
   12,   1,  22.9892, -12.6384,   6.2296, 13.48248,-4.7656E-05, 8.2075E-05, 9.4907E-05, 120.141,
   13,   1,  26.2342,   0.0000,   6.7713, 13.48248, 4.8260E-05,-7.9570E-05, 9.3062E-05, -58.763,
   14,   1,  22.9892,  12.6384,   7.3130, 13.48248,-4.2573E-05, 7.2399E-05, 8.3989E-05, 120.457,
   15,   1,  14.0570,  22.1503,   7.8547, 13.48248, 3.8393E-05,-7.6154E-05, 8.5285E-05, -63.245,
   16,   1,   1.6473,  26.1824,   8.3964, 13.48248,-3.3101E-05, 7.3690E-05, 8.0783E-05, 114.190,
   17,   1, -11.1700,  23.7374,   8.9381, 13.48248, 2.9122E-05,-6.9184E-05, 7.5063E-05, -67.172,
   18,   1, -21.2239,  15.4201,   9.4798, 13.48248,-2.6074E-05, 6.3818E-05, 6.8939E-05, 112.223,
   19,   1, -26.0273,   3.2880,  10.0215, 13.48248, 1.9098E-05,-5.7287E-05, 6.0387E-05, -71.563,
   20,   1, -24.3919,  -9.6574,  10.5632, 13.48248,-8.3141E-06, 5.6431E-05, 5.7040E-05,  98.381,
   21,   1, -16.7223, -20.2138,  11.1049, 13.48248, 9.1263E-06,-4.5842E-05, 4.6742E-05, -78.741,
   22,   1,  -4.9158, -25.7695,  11.6466, 13.48248,-2.7613E-06, 3.9208E-05, 3.9305E-05,  94.029,
   23,   1,   8.1068, -24.9502,  12.1883, 13.48248,-2.6731E-06,-3.1157E-05, 3.1271E-05, -94.904,
   24,   1,  19.1239, -17.9585,  12.7300, 13.48248, 9.5328E-06, 2.3333E-05, 2.5205E-05,  67.777,
   25,   1,  25.4100,  -6.5242,  13.2717, 13.48248,-1.2273E-05,-1.8873E-05, 2.2513E-05,-123.036,
   26,   1,  25.4100,   6.5242,  13.8134, 13.48248, 2.1536E-05, 7.3012E-06, 2.2740E-05,  18.728,
   27,   1,  19.1239,  17.9585,  14.3551, 13.48248,-2.8306E-05,-2.5594E-06, 2.8422E-05,-174.834,
   28,   1,   8.1068,  24.9502,  14.8968, 13.48248, 3.2903E-05,-4.1937E-06, 3.3169E-05,  -7.264,
   29,   1,  -4.9158,  25.7695,  15.4385, 13.48248,-3.6301E-05, 1.2859E-05, 3.8511E-05, 160.494,
   30,   1, -16.7223,  20.2138,  15.9802, 13.48248, 4.1467E-05,-2.1947E-05, 4.6916E-05, -27.891,
   31,   1, -24.3919,   9.6574,  16.5219, 13.48248,-4.7085E-05, 3.1033E-05, 5.6392E-05, 146.612,
   32,   1, -26.0273,  -3.2880,  17.0636, 13.48248, 4.9521E-05,-4.0422E-05, 6.3924E-05, -39.223,
   33,   1, -21.2239, -15.4201,  17.6053, 13.48248,-4.9211E-05, 4.3055E-05, 6.5387E-05, 138.817,
   34,   1, -11.1700, -23.7374,  18.1470, 13.48248, 5.4193E-05,-4.9926E-05, 7.3685E-05, -42.654,
   35,   1,   1.6473, -26.1824,  18.6887, 13.48248,-5.8061E-05, 5.8853E-05, 8.2672E-05, 134.612,
   36,   1,  14.0570, -22.1503,  19.2304, 13.48248, 6.0631E-05,-6.3543E-05, 8.7828E-05, -46.344,
   37,   1,  22.9892, -12.6384,  19.7721, 13.48248,-5.7311E-05, 6.5234E-05, 8.6833E-05, 131.301,
   38,   1,  26.2342,   0.0000,  20.3138, 13.48248, 5.9129E-05,-6.7931E-05, 9.0061E-05, -48.963,
   39,   1,  22.9892,  12.6384,  20.8555, 13.48248,-6.1928E-05, 7.4233E-05, 9.6673E-05, 129.836,
   40,   1,  14.0570,  22.1503,  21.3972, 13.48248, 5.8847E-05,-7.5140E-05, 9.5441E-05, -51.933,
   41,   1,   1.6473,  26.1824,  21.9389, 13.48248,-5.7123E-05, 7.4727E-05, 9.4060E-05, 127.395,
   42,   1, -11.1700,  23.7374,  22.4806, 13.48248, 5.3850E-05,-7.5715E-05, 9.2912E-05, -54.579,
   43,   1, -21.2239,  15.4201,  23.0223, 13.48248,-5.3245E-05, 7.5855E-05, 9.2677E-05, 125.066,
   44,   1, -26.0273,   3.2880,  23.5641, 13.48248, 4.8314E-05,-6.9156E-05, 8.4362E-05, -55.061,
   45,   1, -24.3919,  -9.6574,  24.1058, 13.48248,-4.5182E-05, 6.4024E-05, 7.8361E-05, 125.211,
   46,   1, -16.7223, -20.2138,  24.6475, 13.48248, 4.0142E-05,-6.4631E-05, 7.6083E-05, -58.156,
   47,   1,  -4.9158, -25.7695,  25.1892, 13.48248,-3.5521E-05, 6.0430E-05, 7.0097E-05, 120.447,
   48,   1,   8.1068, -24.9502,  25.7309, 13.48248, 3.2033E-05,-5.1724E-05, 6.0840E-05, -58.230,
   49,   1,  19.1239, -17.9585,  26.2726, 13.48248,-2.4887E-05, 4.6568E-05, 5.2801E-05, 118.121,
   50,   1,  25.4100,  -6.5242,  26.8143, 13.48248, 2.0264E-05,-4.5173E-05, 4.9510E-05, -65.840,
   51,   1,  25.4100,   6.5242,  27.3560, 13.48248,-1.1173E-05, 3.9370E-05, 4.0925E-05, 105.844,
   52,   1,  19.1239,  17.9585,  27.8977, 13.48248, 6.3505E-06,-2.8865E-05, 2.9555E-05, -77.592,
   53,   1,   8.1068,  24.9502,  28.4394, 13.48248,-9.2157E-07, 2.2137E-05, 2.2156E-05,  92.384,
   54,   1,  -4.9158,  25.7695,  28.9811, 13.48248,-7.7792E-06,-1.7204E-05, 1.8881E-05,-114.331,
   55,   1, -16.7223,  20.2138,  29.5228, 13.48248, 1.1855E-05, 9.6331E-06, 1.5275E-05,  39.097,
   56,   1, -24.3919,   9.6574,  30.0645, 13.48248,-1.6989E-05,-4.2999E-06, 1.7525E-05,-165.797,
   57,   1, -26.0273,  -3.2880,  30.6062, 13.48248, 2.1506E-05,-5.7687E-07, 2.1513E-05,  -1.537,
   58,   1, -21.2239, -15.4201,  31.1479, 13.48248,-3.1621E-05, 6.5031E-06, 3.2283E-05, 168.379,
   59,   1, -11.1700, -23.7374,  31.6896, 13.48248, 3.4758E-05,-1.3363E-05, 3.7238E-05, -21.029,
   60,   1,   1.6473, -26.1824,  32.2313, 13.48248,-3.7594E-05, 2.0241E-05, 4.2697E-05, 151.702,
   61,   1,  14.0570, -22.1503,  32.7730, 13.48248, 4.5874E-05,-2.6104E-05, 5.2781E-05, -29.642,
   62,   1,  22.9892, -12.6384,  33.3147, 13.48248,-4.7383E-05, 3.2846E-05, 5.7654E-05, 145.270,
   63,   1,  26.2342,   0.0000,  33.8564, 13.48248, 5.0864E-05,-3.6779E-05, 6.2768E-05, -35.870,
   64,   1,  22.9892,  12.6384,  34.3981, 13.48248,-4.9921E-05, 4.1189E-05, 6.4719E-05, 140.474,
   65,   1,  14.0570,  22.1503,  34.9398, 13.48248, 5.3737E-05,-4.8461E-05, 7.2361E-05, -42.045,
   66,   1,   1.6473,  26.1824,  35.4815, 13.48248,-5.7714E-05, 5.1014E-05, 7.7028E-05, 138.526,
   67,   1, -11.1700,  23.7374,  36.0232, 13.48248, 5.6828E-05,-5.3102E-05, 7.7777E-05, -43.059,
   68,   1, -21.2239,  15.4201,  36.5649, 13.48248,-5.6526E-05, 5.8297E-05, 8.1202E-05, 134.117,
   69,   1, -26.0273,   3.2880,  37.1066, 13.48248, 5.4850E-05,-6.2782E-05, 8.3367E-05, -48.858,
   70,   1, -24.3919,  -9.6574,  37.6483, 13.48248,-6.0012E-05, 6.5149E-05, 8.8577E-05, 132.649,
   71,   1, -16.7223, -20.2138,  38.1900, 13.48248, 5.2546E-05,-6.3883E-05, 8.2717E-05, -50.561,
   72,   1,  -4.9158, -25.7695,  38.7317, 13.48248,-4.9394E-05, 6.6701E-05, 8.2999E-05, 126.521,
   73,   1,   8.1068, -24.9502,  39.2734, 13.48248, 4.8505E-05,-6.7787E-05, 8.3353E-05, -54.415,
   74,   1,  19.1239, -17.9585,  39.8151, 13.48248,-4.5658E-05, 6.4491E-05, 7.9017E-05, 125.298,
   75,   1,  25.4100,  -6.5242,  40.3568, 13.48248, 4.2588E-05,-6.1186E-05, 7.4548E-05, -55.160,
   76,   1,  25.4100,   6.5242,  40.8985, 13.48248,-3.4515E-05, 5.8474E-05, 6.7901E-05, 120.551,
   77,   1,  19.1239,  17.9585,  41.4402, 13.48248, 3.6235E-05,-5.9325E-05, 6.9515E-05, -58.584,
   78,   1,   8.1068,  24.9502,  41.9819, 13.48248,-3.0354E-05, 5.3202E-05, 6.1252E-05, 119.707,
   79,   1,  -4.9158,  25.7695,  42.5236, 13.48248, 2.3550E-05,-4.6879E-05, 5.2462E-05, -63.327,
   80,   1, -16.7223,  20.2138,  43.0653, 13.48248,-1.9079E-05, 4.5219E-05, 4.9079E-05, 112.877,
   81,   1, -24.3919,   9.6574,  43.6070, 13.48248, 1.2261E-05,-4.1623E-05, 4.3392E-05, -73.587,
   82,   1, -26.0273,  -3.2880,  44.1487, 13.48248,-1.0814E-05, 3.1352E-05, 3.3164E-05, 109.031,
   83,   1, -21.2239, -15.4201,  44.6904, 13.48248, 1.3165E-06,-2.2659E-05, 2.2697E-05, -86.675,
   84,   1, -11.1700, -23.7374,  45.2321, 13.48248, 5.8359E-07, 1.8568E-05, 1.8577E-05,  88.200,
   85,   1,   1.6473, -26.1824,  45.7738, 13.48248,-6.2411E-06,-1.3175E-05, 1.4579E-05,-115.347,
   86,   1,  14.0570, -22.1503,  46.3156, 13.48248, 1.1288E-05, 2.8644E-06, 1.1646E-05,  14.238,
   87,   1,  22.9892, -12.6384,  46.8573, 13.48248,-1.3720E-05, 2.7774E-06, 1.3998E-05, 168.556,
   88,   1,  26.2342,   0.0000,  47.3990, 13.48248, 2.3858E-05,-8.0755E-06, 2.5188E-05, -18.700,
   89,   1,  22.9892,  12.6384,  47.9407, 13.48248,-2.4843E-05, 1.4286E-05, 2.8658E-05, 150.098,
   90,   1,  14.0570,  22.1503,  48.4824, 13.48248, 2.8648E-05,-2.5380E-05, 3.8273E-05, -41.538,
   91,   1,   1.6473,  26.1824,  49.0241, 13.48248,-3.2172E-05, 3.0783E-05, 4.4527E-05, 136.264,
   92,   1, -11.1700,  23.7374,  49.5658, 13.48248, 3.7590E-05,-3.5261E-05, 5.1540E-05, -43.168,
   93,   1, -21.2239,  15.4201,  50.1075, 13.48248,-3.9315E-05, 4.4707E-05, 5.9534E-05, 131.328,
   94,   1, -26.0273,   3.2880,  50.6492, 13.48248, 3.7724E-05,-5.2801E-05, 6.4893E-05, -54.456,
   95,   1, -24.3919,  -9.6574,  51.1909, 13.48248,-4.2441E-05, 5.4288E-05, 6.8909E-05, 128.018,
   96,   1, -16.7223, -20.2138,  51.7326, 13.48248, 4.6031E-05,-5.8288E-05, 7.4272E-05, -51.701,
   97,   1,  -4.9158, -25.7695,  52.2743, 13.48248,-4.6545E-05, 6.2947E-05, 7.8287E-05, 126.480,
   98,   1,   8.1068, -24.9502,  52.8160, 13.48248, 4.4735E-05,-6.7014E-05, 8.0574E-05, -56.275,
   99,   1,  19.1239, -17.9585,  53.3577, 13.48248,-4.6835E-05, 6.9000E-05, 8.3394E-05, 124.167,
  100,   1,  25.4100,  -6.5242,  53.8994, 13.48248, 4.9046E-05,-6.8810E-05, 8.4500E-05, -54.520,
  101,   2, -25.4100,  -6.5242,   0.2709, 13.48248,-6.8330E-05, 6.3130E-05, 9.3029E-05, 137.265,
  102,   2, -19.1239, -17.9585,   0.8126, 13.48248, 5.4568E-05,-2.3726E-05, 5.9503E-05, -23.499,
  103,   2,  -8.1068, -24.9502,   1.3543, 13.48248,-5.4906E-05, 3.2851E-05, 6.3984E-05, 149.107,
  104,   2,   4.9158, -25.7695,   1.8960, 13.48248, 5.7302E-05,-4.2928E-05, 7.1599E-05, -36.839,
  105,   2,  16.7223, -20.2138,   2.4377, 13.48248,-5.9637E-05, 5.1122E-05, 7.8549E-05, 139.396,
  106,   2,  24.3919,  -9.6574,   2.9794, 13.48248, 5.8552E-05,-5.8128E-05, 8.2506E-05, -44.792,
  107,   2,  26.0273,   3.2880,   3.5211, 13.48248,-5.9390E-05, 5.5355E-05, 8.1187E-05, 137.014,
  108,   2,  21.2239,  15.4201,   4.0628, 13.48248, 5.7853E-05,-7.3999E-05, 9.3930E-05, -51.981,
  109,   2,  11.1700,  23.7374,   4.6045, 13.48248,-5.7178E-05, 7.4310E-05, 9.3762E-05, 127.576,
  110,   2,  -1.6473,  26.1824,   5.1462, 13.48248, 5.4885E-05,-7.7490E-05, 9.4958E-05, -54.690,
  111,   2, -14.0570,  22.1503,   5.6879, 13.48248,-4.9906E-05, 7.9979E-05, 9.4272E-05, 121.964,
  112,   2, -22.9892,  12.6384,   6.2296, 13.48248, 4.7656E-05,-8.2075E-05, 9.4907E-05, -59.859,
  113,   2, -26.2342,  -0.0000,   6.7713, 13.48248,-4.8260E-05, 7.9570E-05, 9.3062E-05, 121.237,
  114,   2, -22.9892, -12.6384,   7.3130, 13.48248, 4.2573E-05,-7.2399E-05, 8.3989E-05, -59.543,
  115,   2, -14.0570, -22.1503,   7.8547, 13.48248,-3.8393E-05, 7.6154E-05, 8.5285E-05, 116.755,
  116,   2,  -1.6473, -26.1824,   8.3964, 13.48248, 3.3101E-05,-7.3690E-05, 8.0783E-05, -65.810,
  117,   2,  11.1700, -23.7374,   8.9381, 13.48248,-2.9122E-05, 6.9184E-05, 7.5063E-05, 112.828,
  118,   2,  21.2239, -15.4201,   9.4798, 13.48248, 2.6074E-05,-6.3818E-05, 6.8939E-05, -67.777,
  119,   2,  26.0273,  -3.2880,  10.0215, 13.48248,-1.9098E-05, 5.7287E-05, 6.0387E-05, 108.437,
  120,   2,  24.3919,   9.6574,  10.5632, 13.48248, 8.3141E-06,-5.6431E-05, 5.7040E-05, -81.619,
  121,   2,  16.7223,  20.2138,  11.1049, 13.48248,-9.1263E-06, 4.5842E-05, 4.6742E-05, 101.259,
  122,   2,   4.9158,  25.7695,  11.6466, 13.48248, 2.7613E-06,-3.9208E-05, 3.9305E-05, -85.971,
  123,   2,  -8.1068,  24.9502,  12.1883, 13.48248, 2.6731E-06, 3.1157E-05, 3.1271E-05,  85.096,
  124,   2, -19.1239,  17.9585,  12.7300, 13.48248,-9.5328E-06,-2.3333E-05, 2.5205E-05,-112.223,
  125,   2, -25.4100,   6.5242,  13.2717, 13.48248, 1.2273E-05, 1.8873E-05, 2.2513E-05,  56.964,
  126,   2, -25.4100,  -6.5242,  13.8134, 13.48248,-2.1536E-05,-7.3012E-06, 2.2740E-05,-161.272,
  127,   2, -19.1239, -17.9585,  14.3551, 13.48248, 2.8306E-05, 2.5594E-06, 2.8422E-05,   5.166,
  128,   2,  -8.1068, -24.9502,  14.8968, 13.48248,-3.2903E-05, 4.1937E-06, 3.3169E-05, 172.736,
  129,   2,   4.9158, -25.7695,  15.4385, 13.48248, 3.6301E-05,-1.2859E-05, 3.8511E-05, -19.506,
  130,   2,  16.7223, -20.2138,  15.9802, 13.48248,-4.1467E-05, 2.1947E-05, 4.6916E-05, 152.109,
  131,   2,  24.3919,  -9.6574,  16.5219, 13.48248, 4.7085E-05,-3.1033E-05, 5.6392E-05, -33.388,
  132,   2,  26.0273,   3.2880,  17.0636, 13.48248,-4.9521E-05, 4.0422E-05, 6.3924E-05, 140.777,
  133,   2,  21.2239,  15.4201,  17.6053, 13.48248, 4.9211E-05,-4.3055E-05, 6.5387E-05, -41.183,
  134,   2,  11.1700,  23.7374,  18.1470, 13.48248,-5.4193E-05, 4.9926E-05, 7.3685E-05, 137.346,
  135,   2,  -1.6473,  26.1824,  18.6887, 13.48248, 5.8061E-05,-5.8853E-05, 8.2672E-05, -45.388,
  136,   2, -14.0570,  22.1503,  19.2304, 13.48248,-6.0631E-05, 6.3543E-05, 8.7828E-05, 133.656,
  137,   2, -22.9892,  12.6384,  19.7721, 13.48248, 5.7311E-05,-6.5234E-05, 8.6833E-05, -48.699,
  138,   2, -26.2342,  -0.0000,  20.3138, 13.48248,-5.9129E-05, 6.7931E-05, 9.0061E-05, 131.037,
  139,   2, -22.9892, -12.6384,  20.8555, 13.48248, 6.1928E-05,-7.4233E-05, 9.6673E-05, -50.164,
  140,   2, -14.0570, -22.1503,  21.3972, 13.48248,-5.8847E-05, 7.5140E-05, 9.5441E-05, 128.067,
  141,   2,  -1.6473, -26.1824,  21.9389, 13.48248, 5.7123E-05,-7.4727E-05, 9.4060E-05, -52.605,
  142,   2,  11.1700, -23.7374,  22.4806, 13.48248,-5.3850E-05, 7.5715E-05, 9.2912E-05, 125.421,
  143,   2,  21.2239, -15.4201,  23.0223, 13.48248, 5.3245E-05,-7.5855E-05, 9.2677E-05, -54.934,
  144,   2,  26.0273,  -3.2880,  23.5641, 13.48248,-4.8314E-05, 6.9156E-05, 8.4362E-05, 124.939,
  145,   2,  24.3919,   9.6574,  24.1058, 13.48248, 4.5182E-05,-6.4024E-05, 7.8361E-05, -54.789,
  146,   2,  16.7223,  20.2138,  24.6475, 13.48248,-4.0142E-05, 6.4631E-05, 7.6083E-05, 121.844,
  147,   2,   4.9158,  25.7695,  25.1892, 13.48248, 3.5521E-05,-6.0430E-05, 7.0097E-05, -59.553,
  148,   2,  -8.1068,  24.9502,  25.7309, 13.48248,-3.2033E-05, 5.1724E-05, 6.0840E-05, 121.770,
  149,   2, -19.1239,  17.9585,  26.2726, 13.48248, 2.4887E-05,-4.6568E-05, 5.2801E-05, -61.879,
  150,   2, -25.4100,   6.5242,  26.8143, 13.48248,-2.0264E-05, 4.5173E-05, 4.9510E-05, 114.160,
  151,   2, -25.4100,  -6.5242,  27.3560, 13.48248, 1.1173E-05,-3.9370E-05, 4.0925E-05, -74.156,
  152,   2, -19.1239, -17.9585,  27.8977, 13.48248,-6.3505E-06, 2.8865E-05, 2.9555E-05, 102.408,
  153,   2,  -8.1068, -24.9502,  28.4394, 13.48248, 9.2157E-07,-2.2137E-05, 2.2156E-05, -87.616,
  154,   2,   4.9158, -25.7695,  28.9811, 13.48248, 7.7792E-06, 1.7204E-05, 1.8881E-05,  65.669,
  155,   2,  16.7223, -20.2138,  29.5228, 13.48248,-1.1855E-05,-9.6331E-06, 1.5275E-05,-140.903,
  156,   2,  24.3919,  -9.6574,  30.0645, 13.48248, 1.6989E-05, 4.2999E-06, 1.7525E-05,  14.203,
  157,   2,  26.0273,   3.2880,  30.6062, 13.48248,-2.1506E-05, 5.7687E-07, 2.1513E-05, 178.463,
  158,   2,  21.2239,  15.4201,  31.1479, 13.48248, 3.1621E-05,-6.5031E-06, 3.2283E-05, -11.621,
  159,   2,  11.1700,  23.7374,  31.6896, 13.48248,-3.4758E-05, 1.3363E-05, 3.7238E-05, 158.971,
  160,   2,  -1.6473,  26.1824,  32.2313, 13.48248, 3.7594E-05,-2.0241E-05, 4.2697E-05, -28.298,
  161,   2, -14.0570,  22.1503,  32.7730, 13.48248,-4.5874E-05, 2.6104E-05, 5.2781E-05, 150.358,
  162,   2, -22.9892,  12.6384,  33.3147, 13.48248, 4.7383E-05,-3.2846E-05, 5.7654E-05, -34.730,
  163,   2, -26.2342,  -0.0000,  33.8564, 13.48248,-5.0864E-05, 3.6779E-05, 6.2768E-05, 144.130,
  164,   2, -22.9892, -12.6384,  34.3981, 13.48248, 4.9921E-05,-4.1189E-05, 6.4719E-05, -39.526,
  165,   2, -14.0570, -22.1503,  34.9398, 13.48248,-5.3737E-05, 4.8461E-05, 7.2361E-05, 137.955,
  166,   2,  -1.6473, -26.1824,  35.4815, 13.48248, 5.7714E-05,-5.1014E-05, 7.7028E-05, -41.474,
  167,   2,  11.1700, -23.7374,  36.0232, 13.48248,-5.6828E-05, 5.3102E-05, 7.7777E-05, 136.941,
  168,   2,  21.2239, -15.4201,  36.5649, 13.48248, 5.6526E-05,-5.8297E-05, 8.1202E-05, -45.883,
  169,   2,  26.0273,  -3.2880,  37.1066, 13.48248,-5.4850E-05, 6.2782E-05, 8.3367E-05, 131.142,
  170,   2,  24.3919,   9.6574,  37.6483, 13.48248, 6.0012E-05,-6.5149E-05, 8.8577E-05, -47.351,
  171,   2,  16.7223,  20.2138,  38.1900, 13.48248,-5.2546E-05, 6.3883E-05, 8.2717E-05, 129.439,
  172,   2,   4.9158,  25.7695,  38.7317, 13.48248, 4.9394E-05,-6.6701E-05, 8.2999E-05, -53.479,
  173,   2,  -8.1068,  24.9502,  39.2734, 13.48248,-4.8505E-05, 6.7787E-05, 8.3353E-05, 125.585,
  174,   2, -19.1239,  17.9585,  39.8151, 13.48248, 4.5658E-05,-6.4491E-05, 7.9017E-05, -54.702,
  175,   2, -25.4100,   6.5242,  40.3568, 13.48248,-4.2588E-05, 6.1186E-05, 7.4548E-05, 124.840,
  176,   2, -25.4100,  -6.5242,  40.8985, 13.48248, 3.4515E-05,-5.8474E-05, 6.7901E-05, -59.449,
  177,   2, -19.1239, -17.9585,  41.4402, 13.48248,-3.6235E-05, 5.9325E-05, 6.9515E-05, 121.416,
  178,   2,  -8.1068, -24.9502,  41.9819, 13.48248, 3.0354E-05,-5.3202E-05, 6.1252E-05, -60.293,
  179,   2,   4.9158, -25.7695,  42.5236, 13.48248,-2.3550E-05, 4.6879E-05, 5.2462E-05, 116.673,
  180,   2,  16.7223, -20.2138,  43.0653, 13.48248, 1.9079E-05,-4.5219E-05, 4.9079E-05, -67.123,
  181,   2,  24.3919,  -9.6574,  43.6070, 13.48248,-1.2261E-05, 4.1623E-05, 4.3392E-05, 106.413,
  182,   2,  26.0273,   3.2880,  44.1487, 13.48248, 1.0814E-05,-3.1352E-05, 3.3164E-05, -70.969,
  183,   2,  21.2239,  15.4201,  44.6904, 13.48248,-1.3165E-06, 2.2659E-05, 2.2697E-05,  93.325,
  184,   2,  11.1700,  23.7374,  45.2321, 13.48248,-5.8359E-07,-1.8568E-05, 1.8577E-05, -91.800,
  185,   2,  -1.6473,  26.1824,  45.7738, 13.48248, 6.2411E-06, 1.3175E-05, 1.4579E-05,  64.653,
  186,   2, -14.0570,  22.1503,  46.3156, 13.48248,-1.1288E-05,-2.8644E-06, 1.1646E-05,-165.762,
  187,   2, -22.9892,  12.6384,  46.8573, 13.48248, 1.3720E-05,-2.7774E-06, 1.3998E-05, -11.444,
  188,   2, -26.2342,  -0.0000,  47.3990, 13.48248,-2.3858E-05, 8.0755E-06, 2.5188E-05, 161.300,
  189,   2, -22.9892, -12.6384,  47.9407, 13.48248, 2.4843E-05,-1.4286E-05, 2.8658E-05, -29.902,
  190,   2, -14.0570, -22.1503,  48.4824, 13.48248,-2.8648E-05, 2.5380E-05, 3.8273E-05, 138.462,
  191,   2,  -1.6473, -26.1824,  49.0241, 13.48248, 3.2172E-05,-3.0783E-05, 4.4527E-05, -43.736,
  192,   2,  11.1700, -23.7374,  49.5658, 13.48248,-3.7590E-05, 3.5261E-05, 5.1540E-05, 136.832,
  193,   2,  21.2239, -15.4201,  50.1075, 13.48248, 3.9315E-05,-4.4707E-05, 5.9534E-05, -48.672,
  194,   2,  26.0273,  -3.2880,  50.6492, 13.48248,-3.7724E-05, 5.2801E-05, 6.4893E-05, 125.544,
  195,   2,  24.3919,   9.6574,  51.1909, 13.48248, 4.2441E-05,-5.4288E-05, 6.8909E-05, -51.982,
  196,   2,  16.7223,  20.2138,  51.7326, 13.48248,-4.6031E-05, 5.8288E-05, 7.4272E-05, 128.299,
  197,   2,   4.9158,  25.7695,  52.2743, 13.48248, 4.6545E-05,-6.2947E-05, 7.8287E-05, -53.520,
  198,   2,  -8.1068,  24.9502,  52.8160, 13.48248,-4.4735E-05, 6.7014E-05, 8.0574E-05, 123.725,
  199,   2, -19.1239,  17.9585,  53.3577, 13.48248, 4.6835E-05,-6.9000E-05, 8.3394E-05, -55.833,
  200,   2, -25.4100,   6.5242,  53.8994, 13.48248,-4.9046E-05, 6.8810E-05, 8.4500E-05, 125.480,






                               ---------- POWER BUDGET ---------
                               INPUT POWER   =  6.8330E-05 Watts
                               RADIATED POWER=  6.8330E-05 Watts
                               STRUCTURE LOSS=  0.0000E+00 Watts
                               NETWORK LOSS  =  0.0000E+00 Watts
                               EFFICIENCY    =  100.00 Percent


 ---- ANGLES -----     ----- POWER GAINS -----       ---- POLARIZATION ----   ---- E(THETA) ----    ----- E(PHI) ------
  THETA      PHI       MAJOR   MINOR   TOTAL       AXIAL      TILT  SENSE   MAGNITUDE    PHASE    MAGNITUDE     PHASE
 DEGREES   DEGREES        DB       DB       DB       RATIO   DEGREES            VOLTS/M   DEGREES     VOLTS/M   DEGREES
   0.00,     0.00,    5.20,  -14.07,    5.25,     0.1088,   -53.90,LEFT  , 6.9388E-02,   160.29, 9.4394E-02,   -32.73
   1.80,     0.00,   -2.49,  -35.80,   -2.48,     0.0216,   -83.33,RIGHT , 5.6768E-03,    70.30, 4.7747E-02,   -99.09
   3.60,     0.00,    5.35,   -9.35,    5.49,     0.1841,   -59.69,RIGHT , 6.2690E-02,   -32.39, 1.0286E-01,   171.23
   5.40,     0.00,    3.82,  -20.53,    3.84,     0.0606,   -68.02,LEFT  , 3.7624E-02,   -63.10, 9.2195E-02,   106.97
   7.20,     0.00,    6.90,  -26.51,    6.90,     0.0213,   -78.48,RIGHT , 2.8452E-02,  -171.62, 1.3885E-01,    14.61
   9.00,     0.00,    8.21,   -5.41,    8.40,     0.2084,   -76.57,RIGHT , 5.0797E-02,    79.60, 1.6048E-01,   -56.43
  10.80,     0.00,    7.24,  -22.15,    7.25,     0.0339,   -73.21,RIGHT , 4.2833E-02,    38.00, 1.4106E-01,  -135.00
  12.60,     0.00,    3.88,  -22.38,    3.89,     0.0486,   -74.52,RIGHT , 2.7120E-02,   -49.19, 9.6440E-02,   141.55
  14.40,     0.00,    7.16,  -24.17,    7.16,     0.0271,   -80.43,RIGHT , 2.4583E-02,  -140.16, 1.4389E-01,    49.24
  16.20,     0.00,    3.60,   -4.37,    4.24,     0.3994,   -62.04,RIGHT , 5.6843E-02,   149.32, 8.7473E-02,    18.25
  18.00,     0.00,   -0.22,  -18.29,   -0.15,     0.1248,   -78.16,LEFT  , 1.4909E-02,    81.62, 6.1117E-02,  -130.65
  19.80,     0.00,   -1.42,  -30.73,   -1.41,     0.0342,   -78.37,LEFT  , 1.1112E-02,     0.43, 5.3255E-02,   170.59
  21.60,     0.00,   -1.45,  -23.48,   -1.42,     0.0791,   -84.92,RIGHT , 6.4233E-03,  -107.55, 5.3954E-02,   114.50
  23.40,     0.00,    0.35,  -24.46,    0.36,     0.0575,   -86.82,LEFT  , 5.3160E-03,  -132.80, 6.6532E-02,     1.01
  25.20,     0.00,    2.52,  -28.96,    2.53,     0.0267,   -85.76,RIGHT , 6.7218E-03,    43.09, 8.5348E-02,  -117.01
  27.00,     0.00,   -7.93,  -34.69,   -7.92,     0.0459,   -50.04,LEFT  , 1.6525E-02,   177.92, 1.9709E-02,    -7.42
  28.80,     0.00,   -9.96,  -18.74,   -9.42,     0.3639,   -73.93,RIGHT , 9.0708E-03,   -93.71, 1.9650E-02,   143.90
  30.60,     0.00,   -2.39,  -32.97,   -2.39,     0.0296,   -84.36,RIGHT , 4.9898E-03,  -176.10, 4.8367E-02,    20.74
  32.40,     0.00,  -10.96,  -22.51,  -10.66,     0.2646,   -86.73,RIGHT , 4.8984E-03,  -176.83, 1.8102E-02,    81.87
  34.20,     0.00,   -6.24,  -31.91,   -6.23,     0.0521,   -48.78,RIGHT , 2.0593E-02,    49.24, 2.3494E-02,  -124.74
  36.00,     0.00,   -0.40,  -41.58,   -0.40,     0.0087,   -82.85,RIGHT , 7.6228E-03,    59.54, 6.0653E-02,  -116.42
  37.80,     0.00,   -0.93,  -21.19,   -0.89,     0.0970,   -88.48,RIGHT , 5.7813E-03,   151.89, 5.7490E-02,    46.76
  39.60,     0.00,   -6.75,  -28.88,   -6.72,     0.0782,   -76.58,LEFT  , 7.1911E-03,    38.19, 2.8644E-02,  -161.02
  41.40,     0.00,   -8.52,  -14.91,   -7.62,     0.4792,    81.89,RIGHT , 1.1877E-02,    36.32, 2.3814E-02,   -41.02
  43.20,     0.00,   -1.59,  -13.17,   -1.30,     0.2637,    89.03,RIGHT , 1.4086E-02,   -95.43, 5.3304E-02,   177.99
  45.00,     0.00,   -5.85,  -20.03,   -5.68,     0.1954,   -75.98,LEFT  , 1.0043E-02,  -163.75, 3.1719E-02,   -24.58
  46.80,     0.00,  -13.51,  -50.84,  -13.51,     0.0136,   -51.70,RIGHT , 8.3761E-03,   -65.37, 1.0606E-02,   116.23
  48.60,     0.00,   -0.65,  -14.23,   -0.47,     0.2096,    89.36,LEFT  , 1.2459E-02,   142.13, 5.9358E-02,  -130.79
  50.40,     0.00,   -9.57,  -30.45,   -9.54,     0.0904,   -42.55,RIGHT , 1.5720E-02,  -112.48, 1.4450E-02,    77.89
  52.20,     0.00,   -4.69,  -27.16,   -4.66,     0.0752,    88.19,RIGHT , 3.0426E-03,   -16.57, 3.7296E-02,   -83.93
  54.00,     0.00,   -0.04,  -18.38,    0.02,     0.1211,   -77.66,LEFT  , 1.5557E-02,    53.08, 6.2250E-02,  -157.41
  55.80,     0.00,  -18.08,  -46.89,  -18.08,     0.0363,   -77.90,RIGHT , 1.6977E-03,    87.77, 7.8052E-03,   -82.19
  57.60,     0.00,  -10.06,  -23.40,   -9.86,     0.2151,    13.63,RIGHT , 1.9572E-02,   165.01, 6.3344E-03,   120.44
  59.40,     0.00,    4.36,   -0.95,    5.48,     0.5429,   -76.89,LEFT  , 6.0812E-02,    76.39, 1.0376E-01,  -177.60
  61.20,     0.00,   -3.60,  -43.14,   -3.60,     0.0105,   -78.77,LEFT  , 8.2455E-03,   126.64, 4.1482E-02,   -56.52
  63.00,     0.00,    1.61,   -7.03,    2.17,     0.3695,    86.04,RIGHT , 2.8903E-02,  -144.73, 7.6919E-02,   134.41
  64.80,     0.00,   -8.25,  -44.04,   -8.25,     0.0162,    69.12,RIGHT , 8.8332E-03,    56.33, 2.3142E-02,    53.54
  66.60,     0.00,  -10.29,  -17.29,   -9.50,     0.4466,    14.96,LEFT  , 1.9048E-02,  -151.13, 9.8437E-03,   -85.22
  68.40,     0.00,   -1.05,  -24.03,   -1.03,     0.0709,   -31.04,RIGHT , 4.8648E-02,    84.73, 2.9454E-02,   -86.11
  70.20,     0.00,   -9.30,  -31.58,   -9.27,     0.0769,   -86.74,RIGHT , 2.0953E-03,   -84.57, 2.1904E-02,   149.20
  72.00,     0.00,   -7.92,  -32.28,   -7.91,     0.0605,    66.97,RIGHT , 1.0161E-02,     3.27, 2.3670E-02,    -6.31
  73.80,     0.00,  -12.14,  -18.34,  -11.20,     0.4897,   -58.32,RIGHT , 1.0610E-02,  -154.05, 1.4068E-02,    81.20
  75.60,     0.00,   -7.31,  -24.32,   -7.22,     0.1410,   -66.54,RIGHT , 1.1550E-02,    39.76, 2.5363E-02,  -118.73
  77.40,     0.00,    6.09,    1.60,    7.41,     0.5969,    71.19,RIGHT , 8.3913E-02,  -111.67, 1.2459E-01,   176.54
  79.20,     0.00,   -7.25,  -17.24,   -6.84,     0.3168,   -79.32,LEFT  , 1.0063E-02,   -42.58, 2.7337E-02,    74.77
  81.00,     0.00,    4.95,   -1.52,    5.83,     0.4748,   -15.76,LEFT  , 1.0991E-01,  -171.15, 6.0174E-02,   -58.05
  82.80,     0.00,   -0.03,  -10.40,    0.35,     0.3032,   -37.83,RIGHT , 5.1744E-02,   -30.79, 4.1992E-02,  -176.21
  84.60,     0.00,    4.21,    0.57,    5.77,     0.6577,   -81.74,LEFT  , 6.9257E-02,    -9.21, 1.0330E-01,    87.78
  86.40,     0.00,   12.82,    5.03,   13.49,     0.4080,   -88.92,LEFT  , 1.1431E-01,  -128.76, 2.7989E-01,   -36.54
  88.20,     0.00,  -29.67,  -31.63,  -27.53,     0.7984,    76.98,LEFT  , 1.7017E-03,   143.23, 2.0819E-03,  -132.46
  90.00,     0.00,    5.68,  -16.03,    5.70,     0.0822,    88.41,LEFT  , 1.0668E-02,   151.83, 1.2299E-01,  -136.67
  91.80,     0.00,   -2.66,  -68.86,   -2.66,     0.0005,   -87.24,LEFT  , 2.2714E-03,   107.32, 4.7044E-02,   -73.27
  93.60,     0.00,    8.41,    1.18,    9.17,     0.4351,   -87.09,LEFT  , 7.3759E-02,    26.28, 1.6843E-01,   121.68
  95.40,     0.00,   -4.36,   -7.23,   -2.55,     0.7185,   -25.18,LEFT  , 3.7019E-02,  -124.65, 3.0115E-02,   -20.12
  97.20,     0.00,    2.58,  -42.44,    2.58,     0.0056,    81.00,LEFT  , 1.3474E-02,   -73.16, 8.5047E-02,   -71.08
  99.00,     0.00,    9.05,    3.45,   10.11,     0.5249,   -25.01,LEFT  , 1.6928E-01,    63.78, 1.1547E-01,  -178.35
 100.80,     0.00,   -6.09,  -14.70,   -5.53,     0.3711,    43.69,RIGHT , 2.4348E-02,    -6.74, 2.3518E-02,   -47.49
 102.60,     0.00,   10.21,    5.42,   11.46,     0.5759,    83.01,RIGHT , 1.2125E-01,     0.30, 2.0644E-01,   -81.72
 104.40,     0.00,    2.03,  -43.97,    2.03,     0.0050,    87.86,RIGHT , 3.0417E-03,  -175.41, 8.0794E-02,   176.93
 106.20,     0.00,   -5.02,  -19.77,   -4.88,     0.1831,    72.94,LEFT  , 1.2263E-02,    -6.23, 3.4366E-02,    27.81
 108.00,     0.00,  -10.56,  -23.90,  -10.36,     0.2153,     0.17,RIGHT , 1.8977E-02,  -133.41, 4.0855E-03,   137.34
 109.80,     0.00,  -14.20,  -22.28,  -13.57,     0.3946,    86.55,LEFT  , 4.9731E-03,  -112.96, 1.2461E-02,   -30.28
 111.60,     0.00,    1.25,   -7.28,    1.82,     0.3742,   -28.92,LEFT  , 6.6081E-02,   161.95, 4.3189E-02,   -63.85
 113.40,     0.00,   -2.76,  -29.04,   -2.75,     0.0486,    75.25,LEFT  , 1.2058E-02,    13.79, 4.5049E-02,    24.97
 115.20,     0.00,   -6.83,  -21.04,   -6.67,     0.1947,   -73.27,RIGHT , 1.0000E-02,   159.66, 2.7968E-02,    15.93
 117.00,     0.00,    2.67,   -3.19,    3.67,     0.5095,    88.65,RIGHT , 4.4375E-02,    50.82, 8.7017E-02,   -37.22
 118.80,     0.00,   -9.03,  -19.63,   -8.66,     0.2948,    74.12,RIGHT , 8.9238E-03,   137.87, 2.1857E-02,    87.05
 120.60,     0.00,    0.63,   -6.37,    1.42,     0.4469,   -70.39,LEFT  , 3.7035E-02,   169.63, 6.5611E-02,   -70.85
 122.40,     0.00,   -6.05,  -31.94,   -6.04,     0.0508,    74.08,RIGHT , 8.8867E-03,    67.89, 3.0676E-02,    56.96
 124.20,     0.00,  -10.12,  -40.09,  -10.12,     0.0317,    85.28,RIGHT , 1.7592E-03,  -164.29, 1.9890E-02,   174.54
 126.00,     0.00,    0.14,  -10.25,    0.52,     0.3023,    75.79,LEFT  , 2.4882E-02,  -167.98, 6.3273E-02,  -113.55
 127.80,     0.00,   -6.99,  -16.26,   -6.50,     0.3437,   -74.59,LEFT  , 1.2161E-02,   -15.13, 2.7724E-02,   108.19
 129.60,     0.00,  -18.04,  -22.56,  -16.72,     0.5944,     8.45,RIGHT , 7.9670E-03,   -40.21, 4.8628E-03,  -121.22
 131.40,     0.00,   -9.66,  -21.89,   -9.41,     0.2447,   -70.92,LEFT  , 8.4291E-03,    94.87, 1.9964E-02,  -125.24
 133.20,     0.00,  -10.39,  -15.23,   -9.16,     0.5725,   -66.12,LEFT  , 1.2809E-02,   -42.15, 1.8258E-02,    71.34
 135.00,     0.00,  -17.16,  -19.90,  -15.30,     0.7294,   -67.54,LEFT  , 6.8811E-03,    47.30, 8.5722E-03,   150.06
 136.80,     0.00,   -2.91,  -24.65,   -2.88,     0.0819,    81.59,RIGHT , 7.6555E-03,   -25.59, 4.5282E-02,   -55.25
 138.60,     0.00,   -2.40,  -13.98,   -2.10,     0.2636,   -79.00,RIGHT , 1.5616E-02,  -140.01, 4.7752E-02,    96.51
 140.40,     0.00,  -10.50,  -22.98,  -10.26,     0.2377,    58.54,LEFT  , 1.0704E-02,  -162.93, 1.6479E-02,  -133.43
 142.20,     0.00,  -12.06,  -46.64,  -12.06,     0.0187,    31.78,LEFT  , 1.3568E-02,    13.18, 8.4090E-03,    15.57
 144.00,     0.00,   -6.40,  -20.60,   -6.24,     0.1951,   -65.82,LEFT  , 1.3679E-02,  -174.76, 2.8054E-02,   -23.25
 145.80,     0.00,   -2.72,  -21.21,   -2.66,     0.1189,    59.11,LEFT  , 2.4499E-02,  -153.65, 4.0260E-02,  -138.33
 147.60,     0.00,   -2.00,  -27.24,   -1.99,     0.0547,   -89.59,RIGHT , 2.8048E-03,    58.91, 5.0851E-02,   -38.50
 149.40,     0.00,   -8.05,  -21.73,   -7.87,     0.2072,    84.09,LEFT  , 5.8340E-03,     4.39, 2.5195E-02,    69.06
 151.20,     0.00,   -4.30,  -30.37,   -4.29,     0.0497,    86.08,RIGHT , 3.2962E-03,   -86.20, 3.8935E-02,  -122.34
 153.00,     0.00,    2.04,  -14.06,    2.15,     0.1566,   -84.11,LEFT  , 1.5106E-02,    93.33, 8.0577E-02,  -144.24
 154.80,     0.00,  -10.44,  -34.13,  -10.42,     0.0653,   -76.84,RIGHT , 4.5507E-03,   -56.23, 1.8746E-02,   140.26
 156.60,     0.00,    1.45,  -33.29,    1.45,     0.0183,    87.26,RIGHT , 3.8726E-03,    18.39, 7.5529E-02,    -2.61
 158.40,     0.00,   -7.68,  -25.32,   -7.60,     0.1312,    80.39,RIGHT , 5.5863E-03,    36.11, 2.6083E-02,    -2.93
 160.20,     0.00,   -2.06,  -16.30,   -1.90,     0.1940,    47.36,LEFT  , 3.4945E-02,   165.87, 3.7724E-02,  -172.09
 162.00,     0.00,    2.23,  -17.32,    2.28,     0.1054,    84.75,LEFT  , 1.1521E-02,   142.37, 8.2383E-02,  -168.19
 163.80,     0.00,    1.94,   -6.55,    2.52,     0.3763,    64.60,RIGHT , 4.3818E-02,    96.45, 7.3468E-02,    47.92
 165.60,     0.00,    7.73,  -22.36,    7.73,     0.0313,    81.40,LEFT  , 2.3782E-02,   -22.30, 1.5405E-01,   -10.34
 167.40,     0.00,    5.40,  -27.90,    5.40,     0.0216,    73.83,RIGHT , 3.3297E-02,   -93.80, 1.1449E-01,   -98.42
 169.20,     0.00,    4.44,  -18.09,    4.46,     0.0747,    68.26,RIGHT , 4.0194E-02,   173.65, 9.9117E-02,   161.32
 171.00,     0.00,    6.31,  -14.56,    6.34,     0.0905,    74.66,RIGHT , 3.6867E-02,    87.44, 1.2764E-01,    67.75
 172.80,     0.00,    4.37,  -15.40,    4.42,     0.1027,    71.52,RIGHT , 3.5119E-02,    26.99, 1.0050E-01,     7.94
 174.60,     0.00,    2.06,  -32.64,    2.07,     0.0184,    69.13,RIGHT , 2.8951E-02,   -86.22, 7.5854E-02,   -89.39
 176.40,     0.00,    2.86,  -29.03,    2.86,     0.0255,    74.70,RIGHT , 2.3566E-02,  -122.74, 8.5804E-02,  -128.45
 178.20,     0.00,   -7.49,  -17.06,   -7.03,     0.3321,    77.06,RIGHT , 1.0638E-02,   155.45, 2.6415E-02,    95.77
 180.00,     0.00,    2.26,  -13.30,    2.38,     0.1667,    70.38,RIGHT , 3.0790E-02,   106.42, 7.8388E-02,    77.96
   0.00,     1.80,    5.20,  -14.07,    5.25,     0.1088,   -55.70,LEFT  , 6.6468E-02,   160.87, 9.6472E-02,   -32.43
   1.80,     1.80,   -2.06,  -31.68,   -2.05,     0.0330,   -87.63,RIGHT , 2.6710E-03,    51.50, 5.0464E-02,   -89.79
   3.60,     1.80,    5.35,  -11.01,    5.45,     0.1521,   -61.67,RIGHT , 5.8424E-02,   -29.00, 1.0466E-01,   171.44
   5.40,     1.80,    4.56,  -21.53,    4.57,     0.0496,   -72.07,LEFT  , 3.3681E-02,   -56.35, 1.0292E-01,   114.01
   7.20,     1.80,    6.31,  -27.18,    6.31,     0.0212,   -79.51,RIGHT , 2.4260E-02,  -164.93, 1.3013E-01,    21.82
   9.00,     1.80,    8.69,   -5.91,    8.84,     0.1862,   -78.72,RIGHT , 4.6613E-02,    84.97, 1.7092E-01,   -49.89
  10.80,     1.80,    6.99,  -19.57,    7.00,     0.0470,   -74.82,RIGHT , 3.8021E-02,    45.12, 1.3810E-01,  -124.31
  12.60,     1.80,    5.53,  -28.58,    5.53,     0.0197,   -79.19,LEFT  , 2.2817E-02,   -27.52, 1.1886E-01,   146.37
  14.40,     1.80,    7.22,  -16.46,    7.24,     0.0655,   -76.54,LEFT  , 3.5470E-02,  -106.66, 1.4300E-01,    57.14
  16.20,     1.80,    6.13,   -6.86,    6.34,     0.2241,   -76.33,RIGHT , 4.1645E-02,   160.36, 1.2612E-01,    26.13
  18.00,     1.80,   -1.02,  -22.22,   -0.99,     0.0871,   -74.08,LEFT  , 1.6324E-02,   103.50, 5.4754E-02,   -94.90
  19.80,     1.80,    4.46,  -27.86,    4.46,     0.0242,   -77.91,LEFT  , 2.2554E-02,    11.44, 1.0462E-01,  -175.31
  21.60,     1.80,    1.91,  -22.76,    1.93,     0.0584,   -85.75,RIGHT , 7.5169E-03,  -105.38, 7.9560E-02,   113.03
  23.40,     1.80,    4.93,  -28.17,    4.94,     0.0221,   -82.01,LEFT  , 1.5899E-02,  -144.59, 1.1186E-01,    26.28
  25.20,     1.80,    3.83,  -35.87,    3.83,     0.0103,   -87.00,RIGHT , 5.3135E-03,    48.47, 9.9395E-02,  -120.34
  27.00,     1.80,   -4.62,  -40.95,   -4.62,     0.0153,    89.55,LEFT  , 6.4479E-04,    65.45, 3.7583E-02,   128.28
  28.80,     1.80,   -1.12,  -15.30,   -0.96,     0.1955,   -64.46,RIGHT , 2.6201E-02,  -173.24, 5.0964E-02,    34.35
  30.60,     1.80,   -5.53,  -32.18,   -5.52,     0.0465,   -88.25,RIGHT , 1.8852E-03,   151.62, 3.3865E-02,    28.35
  32.40,     1.80,  -10.27,  -34.76,  -10.25,     0.0596,   -89.69,LEFT  , 1.1753E-03,    57.29, 1.9626E-02,   152.44
  34.20,     1.80,   -6.01,  -23.75,   -5.94,     0.1298,    60.31,LEFT  , 1.6280E-02,   -47.05, 2.7915E-02,   -30.00
  36.00,     1.80,   -2.24,  -28.56,   -2.23,     0.0483,    68.96,LEFT  , 1.7899E-02,   -32.31, 4.6169E-02,   -24.09
  37.80,     1.80,   -0.93,  -43.60,   -0.93,     0.0074,   -87.40,LEFT  , 2.6449E-03,  -150.79, 5.7455E-02,    20.00
  39.60,     1.80,   -5.86,  -25.20,   -5.81,     0.1080,   -85.55,RIGHT , 4.3253E-03,    16.97, 3.2490E-02,  -108.36
  41.40,     1.80,   -3.33,  -19.34,   -3.22,     0.1583,   -77.19,RIGHT , 1.1788E-02,  -124.09, 4.2570E-02,    92.80
  43.20,     1.80,    2.53,   -6.52,    3.04,     0.3526,    89.60,RIGHT , 3.0205E-02,    58.46, 8.5640E-02,   -30.55
  45.00,     1.80,  -13.22,  -39.53,  -13.21,     0.0483,   -54.66,RIGHT , 8.0989E-03,    22.00, 1.1401E-02,  -152.14
  46.80,     1.80,   -6.88,  -13.24,   -5.98,     0.4812,   -88.15,RIGHT , 1.3969E-02,   106.53, 2.8968E-02,    13.58
  48.60,     1.80,    0.74,  -18.62,    0.79,     0.1076,    74.30,RIGHT , 2.0198E-02,   165.89, 6.7130E-02,   143.20
  50.40,     1.80,   -1.28,  -22.59,   -1.25,     0.0860,   -85.66,RIGHT , 6.3187E-03,   114.77, 5.5093E-02,   -16.30
  52.20,     1.80,   -6.21,  -12.84,   -5.35,     0.4660,    88.25,LEFT  , 1.4622E-02,    72.41, 3.1313E-02,   159.47
  54.00,     1.80,    1.23,   -6.99,    1.84,     0.3882,    81.83,RIGHT , 3.0214E-02,   156.38, 7.3110E-02,    83.48
  55.80,     1.80,   -9.76,  -25.04,   -9.63,     0.1722,   -75.07,LEFT  , 6.3814E-03,  -176.95, 2.0130E-02,   -32.43
  57.60,     1.80,   -6.85,  -16.57,   -6.41,     0.3265,   -86.42,LEFT  , 9.6518E-03,    -2.26, 2.9036E-02,    97.41
  59.40,     1.80,   -7.13,  -16.47,   -6.65,     0.3415,   -19.95,RIGHT , 2.6672E-02,   -77.60, 1.3192E-02,   152.72
  61.20,     1.80,   -0.58,  -12.91,   -0.33,     0.2417,    83.19,LEFT  , 1.6030E-02,   -83.90, 5.9482E-02,   -18.53
  63.00,     1.80,   -1.21,   -6.52,   -0.09,     0.5431,   -89.38,RIGHT , 3.0230E-02,   -63.54, 5.5653E-02,  -154.35
  64.80,     1.80,   -4.68,  -32.36,   -4.68,     0.0413,    80.39,RIGHT , 6.4149E-03,    18.87, 3.6807E-02,     4.76
  66.60,     1.80,   -5.60,  -43.52,   -5.60,     0.0127,    85.61,RIGHT , 2.6048E-03,    87.02, 3.3486E-02,    77.56
  68.40,     1.80,   -0.20,   -4.55,    1.15,     0.6061,   -19.87,LEFT  , 6.0189E-02,  -176.89, 4.1490E-02,   -68.44
  70.20,     1.80,   -9.79,  -25.77,   -9.69,     0.1590,   -63.78,RIGHT , 9.6212E-03,    12.46, 1.8650E-02,  -145.17
  72.00,     1.80,   -2.75,  -18.21,   -2.63,     0.1688,   -71.23,RIGHT , 1.6746E-02,  -171.33, 4.4214E-02,    38.36
  73.80,     1.80,   -6.79,  -22.44,   -6.67,     0.1649,    66.63,RIGHT , 1.2440E-02,    52.14, 2.6959E-02,    27.17
  75.60,     1.80,  -12.25,  -14.24,  -10.12,     0.7954,    64.54,LEFT  , 1.3070E-02,   -23.27, 1.5077E-02,    56.56
  77.40,     1.80,    6.98,   -0.22,    7.74,     0.4365,   -89.32,RIGHT , 6.2456E-02,   -55.61, 1.4303E-01,  -146.86
  79.20,     1.80,   -3.20,   -8.40,   -2.06,     0.5499,    41.80,RIGHT , 3.6768E-02,    46.37, 3.4633E-02,   -11.41
  81.00,     1.80,    6.47,   -5.94,    6.71,     0.2398,   -62.92,LEFT  , 6.7761E-02,  -121.35, 1.2089E-01,    26.53
  82.80,     1.80,    1.91,  -12.57,    2.06,     0.1889,    60.27,RIGHT , 4.1642E-02,  -110.03, 6.9632E-02,  -134.49
  84.60,     1.80,   -0.39,   -8.67,    0.21,     0.3856,   -28.48,LEFT  , 5.4962E-02,   -71.52, 3.5805E-02,    61.25
  86.40,     1.80,   13.13,    4.35,   13.67,     0.3637,    86.48,LEFT  , 1.0690E-01,   174.98, 2.8984E-01,  -103.34
  88.20,     1.80,   -6.41,  -38.79,   -6.41,     0.0240,   -88.40,RIGHT , 1.1286E-03,     6.98, 3.0575E-02,  -132.33
  90.00,     1.80,   -6.73,  -34.02,   -6.73,     0.0432,    85.09,LEFT  , 2.8258E-03,   171.50, 2.9371E-02,  -161.58
  91.80,     1.80,   -8.55,  -46.73,   -8.55,     0.0123,    84.97,RIGHT , 2.1165E-03,  -139.85, 2.3822E-02,  -147.89
  93.60,     1.80,   10.67,    0.67,   11.09,     0.3161,   -86.47,LEFT  , 7.0305E-02,    84.38, 2.1832E-01,  -175.70
  95.40,     1.80,   -3.25,   -5.52,   -1.23,     0.7703,    72.72,LEFT  , 3.4908E-02,   -57.68, 4.3207E-02,    23.80
  97.20,     1.80,   -2.76,  -49.41,   -2.76,     0.0046,   -61.56,LEFT  , 2.2200E-02,    53.15, 4.0984E-02,  -127.49
  99.00,     1.80,    6.05,    2.71,    7.71,     0.6808,    40.95,LEFT  , 1.1271E-01,     1.45, 1.0704E-01,    70.13
 100.80,     1.80,   -5.13,  -12.20,   -4.35,     0.4428,   -22.97,RIGHT , 3.3225E-02,  -146.80, 2.0017E-02,    90.08
 102.60,     1.80,    7.49,    3.82,    9.04,     0.6548,    62.73,RIGHT , 1.1237E-01,   -58.36, 1.4231E-01,  -128.80
 104.40,     1.80,   -3.40,  -14.66,   -3.09,     0.2737,    73.35,RIGHT , 1.6800E-02,  -142.66, 4.1583E-02,   170.20
 106.20,     1.80,   -2.26,  -11.11,   -1.73,     0.3611,   -38.02,LEFT  , 4.0399E-02,  -141.55, 3.3481E-02,    -2.11
 108.00,     1.80,   -5.97,   -6.21,   -3.08,     0.9725,    56.79,RIGHT , 3.1571E-02,    77.78, 3.1926E-02,   -10.75
 109.80,     1.80,   -5.80,  -21.07,   -5.67,     0.1724,    83.99,RIGHT , 6.5924E-03,  -174.32, 3.2646E-02,   126.04
 111.60,     1.80,    2.30,  -12.17,    2.45,     0.1891,    -9.27,RIGHT , 8.2353E-02,    67.40, 2.0555E-02,   -61.63
 113.40,     1.80,    0.80,  -19.44,    0.84,     0.0972,    87.08,LEFT  , 7.6951E-03,   -66.14, 7.0114E-02,    -3.52
 115.20,     1.80,   -3.91,  -21.52,   -3.83,     0.1316,    72.22,LEFT  , 1.3479E-02,    12.94, 3.8910E-02,    37.67
 117.00,     1.80,    1.99,   -3.87,    2.99,     0.5091,   -84.16,RIGHT , 4.1595E-02,   -46.04, 8.0209E-02,  -144.42
 118.80,     1.80,   -3.84,  -14.46,   -3.48,     0.2946,    80.06,LEFT  , 1.3890E-02,   -11.14, 4.0573E-02,    51.07
 120.60,     1.80,   -2.97,  -15.44,   -2.73,     0.2380,    76.44,LEFT  , 1.4981E-02,   -24.32, 4.4287E-02,    23.58
 122.40,     1.80,  -11.50,  -26.83,  -11.38,     0.1713,   -86.45,RIGHT , 3.0967E-03,  -157.79, 1.6995E-02,    92.89
 124.20,     1.80,  -16.32,  -30.11,  -16.14,     0.2043,   -59.39,LEFT  , 5.2681E-03,    46.70, 8.4773E-03,  -159.24
 126.00,     1.80,    0.81,   -6.14,    1.61,     0.4491,    79.71,RIGHT , 3.3505E-02,    81.20, 6.9390E-02,     8.55
 127.80,     1.80,   -4.99,  -16.54,   -4.70,     0.2645,    64.38,LEFT  , 1.7791E-02,   179.97, 3.2749E-02,  -143.91
 129.60,     1.80,   -3.01,  -20.31,   -2.93,     0.1364,    79.86,RIGHT , 1.0024E-02,    58.85, 4.4594E-02,    20.11
 131.40,     1.80,   -1.13,  -25.29,   -1.12,     0.0620,   -75.42,RIGHT , 1.4532E-02,   125.48, 5.4369E-02,   -40.18
 133.20,     1.80,   -3.41,  -14.20,   -3.07,     0.2887,   -89.01,RIGHT , 1.2495E-02,   145.65, 4.3205E-02,    52.53
 135.00,     1.80,   -4.45,  -26.88,   -4.43,     0.0757,    81.28,LEFT  , 6.4816E-03,  -158.93, 3.7890E-02,  -132.02
 136.80,     1.80,   -0.60,  -23.40,   -0.58,     0.0725,   -75.75,RIGHT , 1.5282E-02,  -152.90, 5.7879E-02,    44.09
 138.60,     1.80,   -3.26,  -14.73,   -2.96,     0.2669,    76.97,RIGHT , 1.5129E-02,    30.51, 4.2913E-02,   -22.11
 140.40,     1.80,   -8.14,  -21.75,   -7.96,     0.2088,    82.00,LEFT  , 6.2479E-03,    32.42, 2.4831E-02,    90.16
 142.20,     1.80,  -11.37,  -49.08,  -11.37,     0.0130,    70.88,LEFT  , 5.6677E-03,     2.56, 1.6338E-02,     4.96
 144.00,     1.80,   -4.08,  -15.93,   -3.81,     0.2558,   -76.16,LEFT  , 1.3793E-02,  -103.47, 3.8916E-02,    26.84
 145.80,     1.80,   -8.02,  -24.70,   -7.93,     0.1467,     6.44,LEFT  , 2.5257E-02,   -61.49, 4.6743E-03,    -8.13
 147.60,     1.80,   -6.71,  -18.10,   -6.40,     0.2695,   -64.70,LEFT  , 1.4549E-02,   155.41, 2.6949E-02,   -61.54
 149.40,     1.80,  -10.17,  -15.50,   -9.05,     0.5411,    84.26,LEFT  , 1.0872E-02,    23.53, 1.9785E-02,   106.11
 151.20,     1.80,   -7.22,  -22.49,   -7.09,     0.1723,   -64.22,RIGHT , 1.2878E-02,    55.02, 2.5198E-02,  -100.60
 153.00,     1.80,    2.99,  -18.94,    3.01,     0.0801,   -81.98,LEFT  , 1.4491E-02,    88.38, 8.9394E-02,  -121.90
 154.80,     1.80,   -4.22,  -21.87,   -4.15,     0.1310,    81.16,RIGHT , 7.9120E-03,  -151.22, 3.8908E-02,   167.50
 156.60,     1.80,    4.40,  -18.60,    4.42,     0.0708,    86.17,RIGHT , 1.0327E-02,    38.23, 1.0596E-01,    -8.65
 158.40,     1.80,   -3.53,  -18.60,   -3.39,     0.1762,    74.02,RIGHT , 1.3787E-02,   -27.76, 4.1058E-02,   -62.26
 160.20,     1.80,    2.16,  -22.37,    2.18,     0.0593,    71.27,LEFT  , 2.6754E-02,  -176.24, 7.7762E-02,  -165.16
 162.00,     1.80,    0.70,  -15.87,    0.79,     0.1485,    77.35,LEFT  , 1.8210E-02,   136.43, 6.7704E-02,   171.82
 163.80,     1.80,    4.50,  -14.45,    4.56,     0.1128,    77.33,RIGHT , 2.6380E-02,    60.95, 1.0492E-01,    32.84
 165.60,     1.80,    7.61,  -24.60,    7.62,     0.0245,    73.59,RIGHT , 4.3589E-02,   -14.91, 1.4753E-01,   -20.08
 167.40,     1.80,    5.63,  -22.93,    5.64,     0.0373,    74.17,LEFT  , 3.3692E-02,  -114.67, 1.1778E-01,  -106.57
 169.20,     1.80,    4.28,  -16.26,    4.32,     0.0940,    73.17,RIGHT , 3.1750E-02,   163.71, 1.0029E-01,   144.81
 171.00,     1.80,    7.59,  -14.70,    7.62,     0.0768,    78.00,RIGHT , 3.3918E-02,    84.58, 1.5004E-01,    63.79
 172.80,     1.80,    3.96,  -16.02,    4.00,     0.1003,    73.89,RIGHT , 2.9650E-02,    21.67, 9.6998E-02,     0.87
 174.60,     1.80,    2.76,  -34.62,    2.76,     0.0135,    73.54,RIGHT , 2.4954E-02,   -94.68, 8.4379E-02,   -97.52
 176.40,     1.80,    2.45,  -32.21,    2.45,     0.0185,    78.03,RIGHT , 1.7668E-02,  -123.26, 8.3017E-02,  -128.47
 178.20,     1.80,   -6.52,  -17.89,   -6.22,     0.2700,    78.91,RIGHT , 9.8927E-03,   148.08, 2.9687E-02,    91.04
 180.00,     1.80,    2.26,  -13.30,    2.38,     0.1667,    72.18,RIGHT , 2.8634E-02,   108.77, 7.9201E-02,    78.29
   0.00,     3.60,    5.20,  -14.07,    5.25,     0.1088,   -57.50,LEFT  , 6.3490E-02,   161.50, 9.8458E-02,   -32.15
   1.80,     3.60,   -1.51,  -30.62,   -1.51,     0.0351,    88.30,RIGHT , 2.4677E-03,   -32.08, 5.3740E-02,   -81.91
   3.60,     3.60,    5.24,  -13.33,    5.30,     0.1179,   -63.74,RIGHT , 5.3255E-02,   -25.81, 1.0516E-01,   170.96
   5.40,     3.60,    5.28,  -24.11,    5.28,     0.0340,   -75.72,LEFT  , 2.9246E-02,   -52.46, 1.1387E-01,   119.45
   7.20,     3.60,    5.50,  -24.35,    5.50,     0.0322,   -81.13,RIGHT , 1.8972E-02,  -163.20, 1.1913E-01,    28.74
   9.00,     3.60,    9.07,   -7.01,    9.18,     0.1571,   -80.56,RIGHT , 4.1032E-02,    90.46, 1.7949E-01,   -44.66
  10.80,     3.60,    6.82,  -14.65,    6.85,     0.0844,   -76.68,RIGHT , 3.4336E-02,    45.65, 1.3661E-01,  -113.58
  12.60,     3.60,    5.53,  -16.97,    5.55,     0.0751,   -81.18,LEFT  , 2.0605E-02,    -1.68, 1.1950E-01,   151.85
  14.40,     3.60,    5.70,  -30.14,    5.70,     0.0161,   -74.25,RIGHT , 3.3520E-02,  -112.18, 1.1868E-01,    71.36
  16.20,     3.60,    7.71,  -23.70,    7.71,     0.0269,   -80.22,LEFT  , 2.6739E-02,  -142.74, 1.5323E-01,    28.13
  18.00,     3.60,    1.51,  -18.87,    1.55,     0.0957,   -76.72,RIGHT , 1.8885E-02,   103.96, 7.4148E-02,   -52.69
  19.80,     3.60,    6.63,  -51.56,    6.63,     0.0012,   -78.26,LEFT  , 2.7943E-02,    16.93, 1.3446E-01,  -163.43
  21.60,     3.60,    4.82,  -22.17,    4.83,     0.0447,   -82.45,RIGHT , 1.5475E-02,   -77.20, 1.1058E-01,   121.75
  23.40,     3.60,    7.86,  -18.77,    7.87,     0.0466,   -83.74,LEFT  , 1.8764E-02,  -121.44, 1.5735E-01,    35.26
  25.20,     3.60,    2.44,  -21.76,    2.46,     0.0617,   -81.48,LEFT  , 1.3589E-02,   105.40, 8.3858E-02,   -97.50
  27.00,     3.60,   -3.51,  -11.65,   -2.89,     0.3918,   -57.97,RIGHT , 2.6749E-02,     9.47, 3.7309E-02,  -124.70
  28.80,     3.60,    2.71,  -21.39,    2.73,     0.0623,   -80.95,RIGHT , 1.4778E-02,  -145.89, 8.6386E-02,    56.05
  30.60,     3.60,   -0.14,  -16.98,   -0.05,     0.1440,   -83.78,RIGHT , 1.1298E-02,   144.35, 6.2595E-02,    18.13
  32.40,     3.60,    0.58,  -39.04,    0.58,     0.0104,   -74.77,RIGHT , 1.7998E-02,    -4.41, 6.6058E-02,   177.95
  34.20,     3.60,   -5.38,  -57.74,   -5.38,     0.0024,   -68.18,LEFT  , 1.2799E-02,   165.18, 3.1967E-02,   -15.22
  36.00,     3.60,   -1.33,  -14.43,   -1.13,     0.2213,   -89.69,LEFT  , 1.2152E-02,   161.69, 5.4894E-02,  -106.98
  37.80,     3.60,   -3.12,  -35.80,   -3.12,     0.0232,    88.35,RIGHT , 1.6504E-03,   116.21, 4.4671E-02,    77.19
  39.60,     3.60,   -1.40,  -25.73,   -1.39,     0.0608,   -83.40,RIGHT , 7.0741E-03,    93.20, 5.4112E-02,   -58.70
  41.40,     3.60,  -15.41,  -28.57,  -15.20,     0.2197,   -50.70,RIGHT , 7.1220E-03,   -95.27, 8.5391E-03,   109.95
  43.20,     3.60,   -3.19,  -37.52,   -3.19,     0.0192,   -82.76,RIGHT , 5.6551E-03,   102.74, 4.3985E-02,   -68.53
  45.00,     3.60,   -3.21,  -14.40,   -2.90,     0.2758,   -89.44,RIGHT , 1.2201E-02,   -72.05, 4.4211E-02,  -163.94
  46.80,     3.60,    2.50,  -17.54,    2.54,     0.0996,   -87.43,LEFT  , 9.3107E-03,  -128.59, 8.5260E-02,   -14.63
  48.60,     3.60,    4.46,   -6.69,    4.78,     0.2768,   -82.09,RIGHT , 3.2822E-02,    -7.13, 1.0605E-01,  -121.57
  50.40,     3.60,    1.44,  -20.79,    1.47,     0.0774,    88.66,LEFT  , 6.1073E-03,   -93.96, 7.5523E-02,   -20.72
  52.20,     3.60,   -2.13,  -34.28,   -2.13,     0.0247,   -80.19,LEFT  , 8.6222E-03,   -53.46, 4.9359E-02,   118.17
  54.00,     3.60,    4.98,   -5.29,    5.37,     0.3065,    71.04,LEFT  , 4.9471E-02,   -83.82, 1.0804E-01,   -36.07
  55.80,     3.60,  -10.44,  -17.90,   -9.73,     0.4238,   -17.50,LEFT  , 1.8505E-02,   -28.18, 9.6874E-03,    90.85
  57.60,     3.60,   -8.90,  -18.60,   -8.46,     0.3272,    76.59,LEFT  , 9.0469E-03,    19.39, 2.2417E-02,    77.77
  59.40,     3.60,   -1.54,  -21.74,   -1.49,     0.0977,    77.84,LEFT  , 1.2408E-02,   -75.53, 5.2446E-02,   -49.94
  61.20,     3.60,   -5.42,  -14.79,   -4.95,     0.3401,   -89.26,RIGHT , 1.1671E-02,    94.93, 3.4290E-02,     3.01
  63.00,     3.60,    0.25,  -17.12,    0.33,     0.1353,   -88.98,RIGHT , 8.9956E-03,    18.00, 6.5904E-02,   -79.38
  64.80,     3.60,   -4.66,  -19.94,   -4.54,     0.1722,    48.10,LEFT  , 2.5442E-02,  -115.88, 2.8178E-02,   -96.24
  66.60,     3.60,   -6.46,  -32.59,   -6.45,     0.0493,    72.84,LEFT  , 9.0902E-03,   -10.61, 2.9078E-02,    -0.66
  68.40,     3.60,    0.13,   -7.53,    0.82,     0.4141,     7.92,RIGHT , 6.4452E-02,   -31.58, 2.8109E-02,  -106.30
  70.20,     3.60,   -8.92,  -39.28,   -8.91,     0.0303,   -80.54,LEFT  , 3.8325E-03,   -48.29, 2.2620E-02,   121.11
  72.00,     3.60,  -12.53,  -20.73,  -11.92,     0.3892,   -45.56,LEFT  , 1.1393E-02,    -5.03, 1.1559E-02,   132.43
  73.80,     3.60,  -10.23,  -23.17,  -10.01,     0.2253,    39.54,RIGHT , 1.5467E-02,  -122.74, 1.3011E-02,  -148.53
  75.60,     3.60,   -5.76,  -29.73,   -5.74,     0.0633,   -67.05,LEFT  , 1.3002E-02,    94.97, 3.0384E-02,   -95.08
  77.40,     3.60,    6.13,    2.46,    7.68,     0.6548,    79.74,RIGHT , 8.6691E-02,    21.98, 1.2849E-01,   -59.33
  79.20,     3.60,   -0.55,   -9.13,    0.01,     0.3728,   -83.94,RIGHT , 2.3145E-02,    59.76, 5.9760E-02,   -43.88
  81.00,     3.60,    7.17,    0.23,    7.97,     0.4499,    67.95,LEFT  , 8.1945E-02,     0.80, 1.3759E-01,    59.13
  82.80,     3.60,    0.22,   -6.41,    1.07,     0.4664,   -48.10,LEFT  , 4.9382E-02,  -171.37, 5.2944E-02,   -41.54
  84.60,     3.60,    3.01,   -3.02,    3.98,     0.4991,   -66.00,LEFT  , 5.5322E-02,  -137.49, 8.4732E-02,   -18.28
  86.40,     3.60,   11.68,    3.80,   12.34,     0.4036,    86.05,LEFT  , 1.0034E-01,   123.79, 2.4514E-01,  -154.31
  88.20,     3.60,   -6.36,  -51.87,   -6.36,     0.0053,    89.46,LEFT  , 3.3337E-04,  -154.96, 3.0780E-02,  -125.66
  90.00,     3.60,   -3.02,  -16.80,   -2.85,     0.2049,   -87.10,LEFT  , 9.5236E-03,   -60.20, 4.5129E-02,    43.12
  91.80,     3.60,   -1.03,  -31.98,   -1.03,     0.0283,   -88.48,RIGHT , 2.2042E-03,   -82.92, 5.6840E-02,   144.05
  93.60,     3.60,    7.90,    0.19,    8.58,     0.4116,    89.52,LEFT  , 6.5421E-02,   136.29, 1.5890E-01,  -134.68
  95.40,     3.60,    0.43,   -5.83,    1.35,     0.4862,    76.57,LEFT  , 3.5436E-02,    -4.45, 6.5861E-02,    66.02
  97.20,     3.60,   -1.88,  -19.01,   -1.79,     0.1390,    80.88,LEFT  , 1.0816E-02,    34.14, 5.0929E-02,    76.31
  99.00,     3.60,    9.03,    5.59,   10.66,     0.6728,   -66.57,LEFT  , 1.3300E-01,  -104.16, 1.7310E-01,     2.37
 100.80,     3.60,   -4.06,   -5.75,   -1.81,     0.8229,    -2.73,RIGHT , 4.0104E-02,  -163.51, 3.3032E-02,   105.42
 102.60,     3.60,    5.89,    5.27,    8.60,     0.9308,    82.61,RIGHT , 1.1750E-01,  -127.58, 1.2594E-01,   143.47
 104.40,     3.60,   -3.97,  -19.79,   -3.86,     0.1618,    59.98,RIGHT , 2.1049E-02,   142.54, 3.5232E-02,   121.56
 106.20,     3.60,   -9.74,  -25.60,   -9.63,     0.1611,    26.28,RIGHT , 1.8760E-02,    62.87, 9.7139E-03,    40.25
 108.00,     3.60,   -4.88,  -24.90,   -4.83,     0.0997,    68.58,RIGHT , 1.3755E-02,   -60.14, 3.4010E-02,   -76.65
 109.80,     3.60,  -13.61,  -32.42,  -13.56,     0.1147,    82.08,RIGHT , 2.3854E-03,   -63.07, 1.3227E-02,  -103.48
 111.60,     3.60,    2.14,   -3.38,    3.21,     0.5294,     7.32,RIGHT , 8.1407E-02,   -64.81, 4.4245E-02,  -145.07
 113.40,     3.60,   -2.23,  -32.85,   -2.22,     0.0294,   -81.34,RIGHT , 7.5972E-03,  -169.73, 4.8973E-02,    21.45
 115.20,     3.60,   -3.70,  -16.13,   -3.46,     0.2391,   -69.24,RIGHT , 1.7516E-02,     0.87, 3.9244E-02,  -141.71
 117.00,     3.60,    3.81,  -14.11,    3.88,     0.1270,   -85.88,RIGHT , 1.4458E-02,   -88.70, 9.9018E-02,   152.28
 118.80,     3.60,   -9.43,  -25.09,   -9.31,     0.1649,   -65.60,LEFT  , 9.5010E-03,  -177.16, 1.9742E-02,   -21.41
 120.60,     3.60,   -6.99,  -20.16,   -6.79,     0.2197,   -71.28,LEFT  , 1.0944E-02,   -58.58, 2.7180E-02,    84.20
 122.40,     3.60,   -5.68,  -24.54,   -5.63,     0.1140,   -81.50,RIGHT , 6.1861E-03,  -151.85, 3.2912E-02,    66.48
 124.20,     3.60,   -1.41,  -16.37,   -1.27,     0.1786,    70.25,LEFT  , 2.0543E-02,  -115.48, 5.1327E-02,   -85.36
 126.00,     3.60,    4.68,   -5.08,    5.12,     0.3251,   -71.59,LEFT  , 4.8448E-02,   -46.52, 1.0472E-01,    82.98
 127.80,     3.60,   -4.51,  -41.00,   -4.51,     0.0150,   -86.86,RIGHT , 2.1640E-03,     8.38, 3.8016E-02,  -156.30
 129.60,     3.60,   -3.32,  -38.87,   -3.32,     0.0167,    87.30,RIGHT , 2.1814E-03,    55.04, 4.3625E-02,    35.48
 131.40,     3.60,   -1.94,   -6.31,   -0.59,     0.6047,    79.35,RIGHT , 3.1862E-02,  -105.80, 5.0636E-02,   174.99
 133.20,     3.60,    0.48,   -9.13,    0.93,     0.3306,    88.39,LEFT  , 2.2442E-02,   -30.16, 6.7636E-02,    55.52
 135.00,     3.60,   -2.12,  -22.28,   -2.08,     0.0982,   -86.84,RIGHT , 5.6397E-03,   -52.68, 5.0048E-02,  -171.70
 136.80,     3.60,   -7.94,  -24.67,   -7.85,     0.1456,   -73.00,RIGHT , 8.3123E-03,   137.85, 2.4571E-02,   -14.13
 138.60,     3.60,   -3.97,  -18.44,   -3.82,     0.1891,    88.96,RIGHT , 7.6963E-03,   -97.01, 4.0506E-02,   178.26
 140.40,     3.60,   -0.82,  -16.02,   -0.69,     0.1738,   -83.50,RIGHT , 1.2029E-02,  -178.87, 5.7893E-02,    59.02
 142.20,     3.60,   -3.15,  -29.28,   -3.14,     0.0494,    84.25,RIGHT , 4.9720E-03,  -103.79, 4.4332E-02,  -130.19
 144.00,     3.60,   -4.85,  -31.26,   -4.84,     0.0478,   -70.55,RIGHT , 1.2310E-02,    67.77, 3.4543E-02,  -103.56
 145.80,     3.60,   -5.88,   -8.09,   -3.83,     0.7754,    81.43,RIGHT , 2.5414E-02,    71.61, 3.2391E-02,   -14.05
 147.60,     3.60,   -0.87,  -29.08,   -0.86,     0.0389,    76.08,LEFT  , 1.4105E-02,  -140.72, 5.6219E-02,  -131.26
 149.40,     3.60,    1.98,  -28.23,    1.98,     0.0309,    74.57,LEFT  , 2.1508E-02,    35.03, 7.7463E-02,    41.91
 151.20,     3.60,   -3.38,  -25.13,   -3.35,     0.0818,   -86.48,RIGHT , 4.4321E-03,    62.17, 4.3291E-02,   -64.52
 153.00,     3.60,    7.16,  -17.04,    7.18,     0.0617,    84.76,RIGHT , 1.6077E-02,  -145.17, 1.4543E-01,  -179.39
 154.80,     3.60,   -5.36,  -33.64,   -5.35,     0.0386,    64.42,RIGHT , 1.4959E-02,   115.14, 3.1158E-02,   109.48
 156.60,     3.60,    6.77,  -20.31,    6.78,     0.0443,    83.05,RIGHT , 1.7960E-02,     7.37, 1.3849E-01,   -12.90
 158.40,     3.60,    0.81,  -20.56,    0.84,     0.0855,    76.81,RIGHT , 1.7059E-02,   -69.73, 6.8405E-02,   -90.92
 160.20,     3.60,    4.54,  -17.47,    4.57,     0.0794,    80.29,RIGHT , 2.0068E-02,  -143.96, 1.0640E-01,  -169.63
 162.00,     3.60,    0.29,  -28.64,    0.29,     0.0358,    75.40,LEFT  , 1.6834E-02,   125.39, 6.4021E-02,   133.74
 163.80,     3.60,    6.30,  -10.54,    6.39,     0.1439,    74.84,LEFT  , 3.9161E-02,    -1.63, 1.2774E-01,    28.57
 165.60,     3.60,    6.59,   -6.32,    6.80,     0.2262,    75.05,RIGHT , 4.6192E-02,     1.03, 1.3226E-01,   -42.70
 167.40,     3.60,    5.16,  -22.92,    5.16,     0.0394,    73.97,LEFT  , 3.2316E-02,  -130.26, 1.1141E-01,  -121.79
 169.20,     3.60,    4.82,  -16.02,    4.85,     0.0908,    76.86,RIGHT , 2.7176E-02,   150.62, 1.0854E-01,   128.14
 171.00,     3.60,    8.27,  -12.72,    8.31,     0.0892,    81.26,RIGHT , 2.9159E-02,    92.37, 1.6401E-01,    61.48
 172.80,     3.60,    3.22,  -17.90,    3.25,     0.0879,    76.68,RIGHT , 2.2786E-02,    15.87, 9.0243E-02,    -5.69
 174.60,     3.60,    3.46,  -31.90,    3.46,     0.0171,    77.64,RIGHT , 2.0462E-02,   -98.29, 9.3081E-02,  -102.96
 176.40,     3.60,    1.98,  -31.91,    1.98,     0.0202,    81.33,RIGHT , 1.2221E-02,  -120.12, 7.9442E-02,  -127.85
 178.20,     3.60,   -5.70,  -18.90,   -5.49,     0.2186,    80.10,RIGHT , 9.1554E-03,   141.05, 3.2755E-02,    87.46
 180.00,     3.60,    2.26,  -13.30,    2.38,     0.1667,    73.98,RIGHT , 2.6506E-02,   111.50, 7.9938E-02,    78.62
   0.00,     5.40,    5.20,  -14.07,    5.25,     0.1088,   -59.30,LEFT  , 6.0458E-02,   162.19, 1.0035E-01,   -31.89
[...]
  61.20,   358.20,  -13.69,  -35.13,  -13.66,     0.0848,   -68.35,LEFT  , 4.9928E-03,    41.04, 1.2305E-02,  -152.94
  63.00,   358.20,   -5.14,  -18.05,   -4.93,     0.2264,   -30.58,RIGHT , 3.0749E-02,   110.67, 1.9284E-02,   -40.74
  64.80,   358.20,   -4.43,  -24.48,   -4.39,     0.0994,   -56.88,RIGHT , 2.1238E-02,   -12.30, 3.2250E-02,  -179.92
  66.60,   358.20,   -8.38,  -24.80,   -8.28,     0.1510,   -44.34,LEFT  , 1.7629E-02,    19.78, 1.7244E-02,  -177.39
  68.40,   358.20,   -1.03,   -4.49,    0.59,     0.6710,   -57.06,RIGHT , 4.4511E-02,    10.75, 5.2031E-02,   -99.75
  70.20,   358.20,   -4.75,  -16.95,   -4.50,     0.2456,   -79.52,LEFT  , 1.1196E-02,    82.65, 3.6459E-02,  -152.96
  72.00,   358.20,  -11.76,  -36.06,  -11.74,     0.0610,   -62.04,RIGHT , 7.8009E-03,  -121.60, 1.4610E-02,    66.81
  73.80,   358.20,  -13.91,  -22.50,  -13.35,     0.3722,   -67.29,RIGHT , 6.6640E-03,     2.45, 1.2040E-02,  -127.05
  75.60,   358.20,   -4.66,  -29.58,   -4.64,     0.0568,   -83.04,LEFT  , 5.0027E-03,    44.85, 3.7164E-02,  -160.48
  77.40,   358.20,    0.83,  -19.92,    0.86,     0.0917,    11.68,RIGHT , 6.8949E-02,  -174.17, 1.5588E-02,   160.81
  79.20,   358.20,   -2.92,   -8.44,   -1.85,     0.5301,    53.94,RIGHT , 3.3284E-02,  -122.87, 3.9615E-02,   179.96
  81.00,   358.20,    1.98,   -1.54,    3.58,     0.6663,   -64.49,LEFT  , 5.9496E-02,    78.06, 7.6174E-02,  -173.97
  82.80,   358.20,   -3.81,  -52.29,   -3.81,     0.0038,    19.80,RIGHT , 3.8858E-02,    30.46, 1.3989E-02,    29.78
  84.60,   358.20,    0.98,   -7.20,    1.59,     0.3903,    49.81,LEFT  , 5.0914E-02,    59.69, 5.7606E-02,   102.73
  86.40,   358.20,   14.40,    4.46,   14.82,     0.3183,   -87.13,LEFT  , 1.0812E-01,   -72.55, 3.3553E-01,    25.48
  88.20,   358.20,   -1.83,  -56.13,   -1.83,     0.0019,   -86.36,LEFT  , 3.2980E-03,  -145.50, 5.1763E-02,    32.76
  90.00,   358.20,   -2.78,  -22.77,   -2.73,     0.1001,    89.66,LEFT  , 4.6601E-03,   -84.90, 4.6496E-02,     1.76
  91.80,   358.20,   -5.42,  -31.84,   -5.41,     0.0478,    89.25,RIGHT , 1.6983E-03,    81.53, 3.4274E-02,     6.76
  93.60,   358.20,   10.56,    0.85,   11.00,     0.3266,    85.19,LEFT  , 7.2593E-02,   -29.84, 2.1533E-01,    47.29
  95.40,   358.20,   -2.92,  -14.55,   -2.63,     0.2620,   -43.55,LEFT  , 3.4169E-02,   166.83, 3.2697E-02,   -42.56
  97.20,   358.20,    0.39,   -8.00,    0.98,     0.3808,   -86.23,LEFT  , 2.5806E-02,  -112.42, 6.6801E-02,   -14.04
  99.00,   358.20,    7.62,    2.98,    8.90,     0.5861,   -81.49,LEFT  , 9.2091E-02,   159.82, 1.5283E-01,  -100.87
 100.80,   358.20,   -2.98,  -10.60,   -2.29,     0.4161,   -36.11,RIGHT , 3.8341E-02,    22.98, 3.0808E-02,  -110.44
 102.60,   358.20,    6.59,    3.25,    8.24,     0.6805,   -57.87,RIGHT , 1.0719E-01,    71.36, 1.2589E-01,   -38.20
 104.40,   358.20,    2.30,  -19.61,    2.32,     0.0803,    88.55,RIGHT , 7.0183E-03,   -93.97, 8.3357E-02,  -166.62
 106.20,   358.20,   -7.08,  -42.75,   -7.08,     0.0165,    -9.33,LEFT  , 2.7940E-02,    31.37, 4.6109E-03,  -154.51
 108.00,   358.20,   -3.07,  -11.32,   -2.47,     0.3869,    68.77,RIGHT , 2.2959E-02,   -34.64, 4.2350E-02,   -88.08
 109.80,   358.20,   -6.96,  -56.02,   -6.96,     0.0035,    86.42,LEFT  , 1.7958E-03,   177.21, 2.8657E-02,  -179.55
 111.60,   358.20,    0.47,  -18.60,    0.52,     0.1113,    -0.21,RIGHT , 6.7557E-02,  -111.65, 7.5262E-03,   156.48
 113.40,   358.20,   -2.60,  -20.71,   -2.53,     0.1243,   -68.91,LEFT  , 1.7945E-02,  -173.52, 4.4334E-02,   -14.13
 115.20,   358.20,   -8.01,  -30.40,   -7.98,     0.0759,   -13.25,LEFT  , 2.4791E-02,  -114.15, 6.1332E-03,    46.97
 117.00,   358.20,    3.95,   -4.39,    4.54,     0.3829,    73.98,RIGHT , 4.6408E-02,   138.93, 9.7537E-02,    79.53
 118.80,   358.20,  -11.84,  -21.22,  -11.37,     0.3398,    81.17,LEFT  , 6.0457E-03,   -75.00, 1.6205E-02,    -6.55
 120.60,   358.20,   -7.66,  -29.51,   -7.63,     0.0808,   -32.38,RIGHT , 2.2405E-02,     4.09, 1.4303E-02,  -165.71
 122.40,   358.20,   -1.55,  -11.70,   -1.15,     0.3109,    83.51,LEFT  , 1.7616E-02,   -24.54, 5.3238E-02,    47.39
 124.20,   358.20,  -11.76,  -34.63,  -11.73,     0.0718,    86.94,RIGHT , 1.4778E-03,  -113.17, 1.6513E-02,  -166.76
 126.00,   358.20,   -0.11,  -17.25,   -0.02,     0.1390,   -71.24,LEFT  , 2.1966E-02,   -62.53, 5.9935E-02,    92.51
 127.80,   358.20,  -13.46,  -23.03,  -13.01,     0.3321,   -88.06,LEFT  , 4.5344E-03,   152.18, 1.3584E-02,  -112.66
 129.60,   358.20,   -9.74,  -27.85,   -9.68,     0.1244,   -68.42,RIGHT , 8.0377E-03,    77.84, 1.9408E-02,   -81.89
 131.40,   358.20,   -5.64,  -23.06,   -5.56,     0.1347,     1.33,LEFT  , 3.3426E-02,  -168.06, 4.5682E-03,   -87.69
 133.20,   358.20,   -4.15,  -20.26,   -4.04,     0.1564,   -88.48,RIGHT , 6.2952E-03,   133.72, 3.9685E-02,    34.36
 135.00,   358.20,  -14.07,  -18.41,  -12.71,     0.6063,    87.99,RIGHT , 7.6920E-03,  -113.33, 1.2668E-02,   158.76
 136.80,   358.20,   -5.50,   -9.28,   -3.98,     0.6470,    78.36,RIGHT , 2.2593E-02,   149.80, 3.3566E-02,    69.87
 138.60,   358.20,   -7.49,  -16.47,   -6.97,     0.3553,    78.80,RIGHT , 1.0789E-02,    27.68, 2.6588E-02,   -37.22
 140.40,   358.20,  -10.17,  -23.47,   -9.97,     0.2163,   -52.62,RIGHT , 1.2525E-02,    25.66, 1.5987E-02,  -129.15
 142.20,   358.20,   -7.98,  -29.86,   -7.96,     0.0806,    84.44,LEFT  , 3.2119E-03,  -177.75, 2.5409E-02,  -137.69
 144.00,   358.20,    3.39,  -31.23,    3.39,     0.0186,   -89.73,RIGHT , 1.8098E-03,   138.48, 9.4539E-02,    34.47
 145.80,   358.20,   -4.06,  -14.61,   -3.69,     0.2969,   -72.72,LEFT  , 1.6468E-02,    84.96, 3.8460E-02,  -143.99
 147.60,   358.20,   -4.41,  -14.92,   -4.04,     0.2981,    76.93,LEFT  , 1.4188E-02,  -110.18, 3.7633E-02,   -54.14
 149.40,   358.20,   -1.00,  -19.98,   -0.94,     0.1124,    73.14,LEFT  , 1.7658E-02,    31.42, 5.4652E-02,    53.72
 151.20,   358.20,   -5.80,  -19.33,   -5.61,     0.2105,    84.49,RIGHT , 7.5673E-03,   -89.71, 3.2689E-02,  -156.27
 153.00,   358.20,   -3.15,  -13.72,   -2.79,     0.2963,    80.63,LEFT  , 1.4900E-02,   125.67, 4.3979E-02,  -170.64
 154.80,   358.20,   -7.42,  -16.25,   -6.89,     0.3616,    39.86,LEFT  , 2.1846E-02,     9.23, 1.9027E-02,    49.45
 156.60,   358.20,    0.88,  -24.37,    0.89,     0.0546,    85.38,LEFT  , 6.8850E-03,   -36.26, 7.0618E-02,    -1.93
 158.40,   358.20,  -10.72,  -20.91,  -10.33,     0.3095,    85.07,RIGHT , 5.9624E-03,   135.18, 1.8563E-02,    59.21
 160.20,   358.20,  -10.24,  -18.32,   -9.61,     0.3945,    15.76,RIGHT , 1.9074E-02,   163.70, 9.1957E-03,   102.93
 162.00,   358.20,    1.50,  -26.23,    1.51,     0.0411,    83.86,LEFT  , 8.7128E-03,   179.65, 7.5639E-02,  -159.20
 163.80,   358.20,    0.48,  -16.77,    0.56,     0.1373,    60.24,RIGHT , 3.4514E-02,    93.75, 5.8883E-02,    75.76
 165.60,   358.20,    5.76,  -12.52,    5.83,     0.1218,    87.30,RIGHT , 1.6220E-02,    66.31, 1.2415E-01,    -2.85
 167.40,   358.20,    2.62,  -18.75,    2.65,     0.0855,    71.03,RIGHT , 2.8997E-02,   -72.00, 8.1880E-02,   -87.64
 169.20,   358.20,    4.79,  -22.23,    4.80,     0.0446,    64.19,RIGHT , 4.8557E-02,  -179.11, 1.0001E-01,   174.39
 171.00,   358.20,    4.32,  -12.22,    4.42,     0.1489,    71.07,RIGHT , 3.7245E-02,   101.39, 9.9743E-02,    74.99
 172.80,   358.20,    4.47,  -15.24,    4.51,     0.1034,    69.76,RIGHT , 3.8454E-02,    33.27, 1.0050E-01,    15.41
 174.60,   358.20,    1.49,  -30.66,    1.49,     0.0247,    64.57,RIGHT , 3.2668E-02,   -74.41, 6.8612E-02,   -78.06
 176.40,   358.20,    3.17,  -25.15,    3.18,     0.0384,    71.44,RIGHT , 2.9549E-02,  -120.56, 8.7431E-02,  -127.81
 178.20,   358.20,   -8.57,  -16.42,   -7.91,     0.4049,    73.70,RIGHT , 1.1447E-02,   163.17, 2.3076E-02,   102.26
 180.00,   358.20,    2.26,  -13.30,    2.38,     0.1667,    68.58,RIGHT , 3.2961E-02,   104.38, 7.7501E-02,    77.62
   0.00,   360.00,    5.20,  -14.07,    5.25,     0.1088,   -53.90,LEFT  , 6.9388E-02,   160.29, 9.4394E-02,   -32.73
   1.80,   360.00,   -2.49,  -35.80,   -2.48,     0.0216,   -83.33,RIGHT , 5.6768E-03,    70.30, 4.7747E-02,   -99.09
   3.60,   360.00,    5.35,   -9.35,    5.49,     0.1841,   -59.69,RIGHT , 6.2690E-02,   -32.39, 1.0286E-01,   171.23
   5.40,   360.00,    3.82,  -20.53,    3.84,     0.0606,   -68.02,LEFT  , 3.7624E-02,   -63.10, 9.2195E-02,   106.97
   7.20,   360.00,    6.90,  -26.51,    6.90,     0.0213,   -78.48,RIGHT , 2.8452E-02,  -171.62, 1.3885E-01,    14.61
   9.00,   360.00,    8.21,   -5.41,    8.40,     0.2084,   -76.57,RIGHT , 5.0797E-02,    79.60, 1.6048E-01,   -56.43
  10.80,   360.00,    7.24,  -22.15,    7.25,     0.0339,   -73.21,RIGHT , 4.2833E-02,    38.00, 1.4106E-01,  -135.00
  12.60,   360.00,    3.88,  -22.38,    3.89,     0.0486,   -74.52,RIGHT , 2.7120E-02,   -49.19, 9.6440E-02,   141.55
  14.40,   360.00,    7.16,  -24.17,    7.16,     0.0271,   -80.43,RIGHT , 2.4583E-02,  -140.16, 1.4389E-01,    49.24
  16.20,   360.00,    3.60,   -4.37,    4.24,     0.3994,   -62.04,RIGHT , 5.6843E-02,   149.32, 8.7473E-02,    18.25
  18.00,   360.00,   -0.22,  -18.29,   -0.15,     0.1248,   -78.16,LEFT  , 1.4909E-02,    81.62, 6.1117E-02,  -130.65
  19.80,   360.00,   -1.42,  -30.73,   -1.41,     0.0342,   -78.37,LEFT  , 1.1112E-02,     0.43, 5.3255E-02,   170.59
  21.60,   360.00,   -1.45,  -23.48,   -1.42,     0.0791,   -84.92,RIGHT , 6.4233E-03,  -107.55, 5.3954E-02,   114.50
  23.40,   360.00,    0.35,  -24.46,    0.36,     0.0575,   -86.82,LEFT  , 5.3160E-03,  -132.80, 6.6532E-02,     1.01
  25.20,   360.00,    2.52,  -28.96,    2.53,     0.0267,   -85.76,RIGHT , 6.7218E-03,    43.09, 8.5348E-02,  -117.01
  27.00,   360.00,   -7.93,  -34.69,   -7.92,     0.0459,   -50.04,LEFT  , 1.6525E-02,   177.92, 1.9709E-02,    -7.42
  28.80,   360.00,   -9.96,  -18.74,   -9.42,     0.3639,   -73.93,RIGHT , 9.0708E-03,   -93.71, 1.9650E-02,   143.90
  30.60,   360.00,   -2.39,  -32.97,   -2.39,     0.0296,   -84.36,RIGHT , 4.9898E-03,  -176.10, 4.8367E-02,    20.74
  32.40,   360.00,  -10.96,  -22.51,  -10.66,     0.2646,   -86.73,RIGHT , 4.8984E-03,  -176.83, 1.8102E-02,    81.87
  34.20,   360.00,   -6.24,  -31.91,   -6.23,     0.0521,   -48.78,RIGHT , 2.0593E-02,    49.24, 2.3494E-02,  -124.74
  36.00,   360.00,   -0.40,  -41.58,   -0.40,     0.0087,   -82.85,RIGHT , 7.6228E-03,    59.54, 6.0653E-02,  -116.42
  37.80,   360.00,   -0.93,  -21.19,   -0.89,     0.0970,   -88.48,RIGHT , 5.7813E-03,   151.89, 5.7490E-02,    46.76
  39.60,   360.00,   -6.75,  -28.88,   -6.72,     0.0782,   -76.58,LEFT  , 7.1911E-03,    38.19, 2.8644E-02,  -161.02
  41.40,   360.00,   -8.52,  -14.91,   -7.62,     0.4792,    81.89,RIGHT , 1.1877E-02,    36.32, 2.3814E-02,   -41.02
  43.20,   360.00,   -1.59,  -13.17,   -1.30,     0.2637,    89.03,RIGHT , 1.4086E-02,   -95.43, 5.3304E-02,   177.99
  45.00,   360.00,   -5.85,  -20.03,   -5.68,     0.1954,   -75.98,LEFT  , 1.0043E-02,  -163.75, 3.1719E-02,   -24.58
  46.80,   360.00,  -13.51,  -50.84,  -13.51,     0.0136,   -51.70,RIGHT , 8.3761E-03,   -65.37, 1.0606E-02,   116.23
  48.60,   360.00,   -0.65,  -14.23,   -0.47,     0.2096,    89.36,LEFT  , 1.2459E-02,   142.13, 5.9358E-02,  -130.79
  50.40,   360.00,   -9.57,  -30.45,   -9.54,     0.0904,   -42.55,RIGHT , 1.5720E-02,  -112.48, 1.4450E-02,    77.89
  52.20,   360.00,   -4.69,  -27.16,   -4.66,     0.0752,    88.19,RIGHT , 3.0426E-03,   -16.57, 3.7296E-02,   -83.93
  54.00,   360.00,   -0.04,  -18.38,    0.02,     0.1211,   -77.66,LEFT  , 1.5557E-02,    53.08, 6.2250E-02,  -157.41
  55.80,   360.00,  -18.08,  -46.89,  -18.08,     0.0363,   -77.90,RIGHT , 1.6977E-03,    87.77, 7.8052E-03,   -82.19
  57.60,   360.00,  -10.06,  -23.40,   -9.86,     0.2151,    13.63,RIGHT , 1.9572E-02,   165.01, 6.3344E-03,   120.44
  59.40,   360.00,    4.36,   -0.95,    5.48,     0.5429,   -76.89,LEFT  , 6.0812E-02,    76.39, 1.0376E-01,  -177.60
  61.20,   360.00,   -3.60,  -43.14,   -3.60,     0.0105,   -78.77,LEFT  , 8.2455E-03,   126.64, 4.1482E-02,   -56.52
  63.00,   360.00,    1.61,   -7.03,    2.17,     0.3695,    86.04,RIGHT , 2.8903E-02,  -144.73, 7.6919E-02,   134.41
  64.80,   360.00,   -8.25,  -44.04,   -8.25,     0.0162,    69.12,RIGHT , 8.8332E-03,    56.33, 2.3142E-02,    53.54
  66.60,   360.00,  -10.29,  -17.29,   -9.50,     0.4466,    14.96,LEFT  , 1.9048E-02,  -151.13, 9.8437E-03,   -85.22
  68.40,   360.00,   -1.05,  -24.03,   -1.03,     0.0709,   -31.04,RIGHT , 4.8648E-02,    84.73, 2.9454E-02,   -86.11
  70.20,   360.00,   -9.30,  -31.58,   -9.27,     0.0769,   -86.74,RIGHT , 2.0953E-03,   -84.57, 2.1904E-02,   149.20
  72.00,   360.00,   -7.92,  -32.28,   -7.91,     0.0605,    66.97,RIGHT , 1.0161E-02,     3.27, 2.3670E-02,    -6.31
  73.80,   360.00,  -12.14,  -18.34,  -11.20,     0.4897,   -58.32,RIGHT , 1.0610E-02,  -154.05, 1.4068E-02,    81.20
  75.60,   360.00,   -7.31,  -24.32,   -7.22,     0.1410,   -66.54,RIGHT , 1.1550E-02,    39.76, 2.5363E-02,  -118.73
  77.40,   360.00,    6.09,    1.60,    7.41,     0.5969,    71.19,RIGHT , 8.3913E-02,  -111.67, 1.2459E-01,   176.54
  79.20,   360.00,   -7.25,  -17.24,   -6.84,     0.3168,   -79.32,LEFT  , 1.0063E-02,   -42.58, 2.7337E-02,    74.77
  81.00,   360.00,    4.95,   -1.52,    5.83,     0.4748,   -15.76,LEFT  , 1.0991E-01,  -171.15, 6.0174E-02,   -58.05
  82.80,   360.00,   -0.03,  -10.40,    0.35,     0.3032,   -37.83,RIGHT , 5.1744E-02,   -30.79, 4.1992E-02,  -176.21
  84.60,   360.00,    4.21,    0.57,    5.77,     0.6577,   -81.74,LEFT  , 6.9257E-02,    -9.21, 1.0330E-01,    87.78
  86.40,   360.00,   12.82,    5.03,   13.49,     0.4080,   -88.92,LEFT  , 1.1431E-01,  -128.76, 2.7989E-01,   -36.54
  88.20,   360.00,  -29.67,  -31.63,  -27.53,     0.7984,    76.98,LEFT  , 1.7017E-03,   143.23, 2.0819E-03,  -132.46
  90.00,   360.00,    5.68,  -16.03,    5.70,     0.0822,    88.41,LEFT  , 1.0668E-02,   151.83, 1.2299E-01,  -136.67
  91.80,   360.00,   -2.66,  -68.86,   -2.66,     0.0005,   -87.24,LEFT  , 2.2714E-03,   107.32, 4.7044E-02,   -73.27
  93.60,   360.00,    8.41,    1.18,    9.17,     0.4351,   -87.09,LEFT  , 7.3759E-02,    26.28, 1.6843E-01,   121.68
  95.40,   360.00,   -4.36,   -7.23,   -2.55,     0.7185,   -25.18,LEFT  , 3.7019E-02,  -124.65, 3.0115E-02,   -20.12
  97.20,   360.00,    2.58,  -42.44,    2.58,     0.0056,    81.00,LEFT  , 1.3474E-02,   -73.16, 8.5047E-02,   -71.08
  99.00,   360.00,    9.05,    3.45,   10.11,     0.5249,   -25.01,LEFT  , 1.6928E-01,    63.78, 1.1547E-01,  -178.35
 100.80,   360.00,   -6.09,  -14.70,   -5.53,     0.3711,    43.69,RIGHT , 2.4348E-02,    -6.74, 2.3518E-02,   -47.49
 102.60,   360.00,   10.21,    5.42,   11.46,     0.5759,    83.01,RIGHT , 1.2125E-01,     0.30, 2.0644E-01,   -81.72
 104.40,   360.00,    2.03,  -43.97,    2.03,     0.0050,    87.86,RIGHT , 3.0417E-03,  -175.41, 8.0794E-02,   176.93
 106.20,   360.00,   -5.02,  -19.77,   -4.88,     0.1831,    72.94,LEFT  , 1.2263E-02,    -6.23, 3.4366E-02,    27.81
 108.00,   360.00,  -10.56,  -23.90,  -10.36,     0.2153,     0.17,RIGHT , 1.8977E-02,  -133.41, 4.0855E-03,   137.34
 109.80,   360.00,  -14.20,  -22.28,  -13.57,     0.3946,    86.55,LEFT  , 4.9731E-03,  -112.96, 1.2461E-02,   -30.28
 111.60,   360.00,    1.25,   -7.28,    1.82,     0.3742,   -28.92,LEFT  , 6.6081E-02,   161.95, 4.3189E-02,   -63.85
 113.40,   360.00,   -2.76,  -29.04,   -2.75,     0.0486,    75.25,LEFT  , 1.2058E-02,    13.79, 4.5049E-02,    24.97
 115.20,   360.00,   -6.83,  -21.04,   -6.67,     0.1947,   -73.27,RIGHT , 1.0000E-02,   159.66, 2.7968E-02,    15.93
 117.00,   360.00,    2.67,   -3.19,    3.67,     0.5095,    88.65,RIGHT , 4.4375E-02,    50.82, 8.7017E-02,   -37.22
 118.80,   360.00,   -9.03,  -19.63,   -8.66,     0.2948,    74.12,RIGHT , 8.9238E-03,   137.87, 2.1857E-02,    87.05
 120.60,   360.00,    0.63,   -6.37,    1.42,     0.4469,   -70.39,LEFT  , 3.7035E-02,   169.63, 6.5611E-02,   -70.85
 122.40,   360.00,   -6.05,  -31.94,   -6.04,     0.0508,    74.08,RIGHT , 8.8867E-03,    67.89, 3.0676E-02,    56.96
 124.20,   360.00,  -10.12,  -40.09,  -10.12,     0.0317,    85.28,RIGHT , 1.7592E-03,  -164.29, 1.9890E-02,   174.54
 126.00,   360.00,    0.14,  -10.25,    0.52,     0.3023,    75.79,LEFT  , 2.4882E-02,  -167.98, 6.3273E-02,  -113.55
 127.80,   360.00,   -6.99,  -16.26,   -6.50,     0.3437,   -74.59,LEFT  , 1.2161E-02,   -15.13, 2.7724E-02,   108.19
 129.60,   360.00,  -18.04,  -22.56,  -16.72,     0.5944,     8.45,RIGHT , 7.9670E-03,   -40.21, 4.8628E-03,  -121.22
 131.40,   360.00,   -9.66,  -21.89,   -9.41,     0.2447,   -70.92,LEFT  , 8.4291E-03,    94.87, 1.9964E-02,  -125.24
 133.20,   360.00,  -10.39,  -15.23,   -9.16,     0.5725,   -66.12,LEFT  , 1.2809E-02,   -42.15, 1.8258E-02,    71.34
 135.00,   360.00,  -17.16,  -19.90,  -15.30,     0.7294,   -67.54,LEFT  , 6.8811E-03,    47.30, 8.5722E-03,   150.06
 136.80,   360.00,   -2.91,  -24.65,   -2.88,     0.0819,    81.59,RIGHT , 7.6555E-03,   -25.59, 4.5282E-02,   -55.25
 138.60,   360.00,   -2.40,  -13.98,   -2.10,     0.2636,   -79.00,RIGHT , 1.5616E-02,  -140.01, 4.7752E-02,    96.51
 140.40,   360.00,  -10.50,  -22.98,  -10.26,     0.2377,    58.54,LEFT  , 1.0704E-02,  -162.93, 1.6479E-02,  -133.43
 142.20,   360.00,  -12.06,  -46.64,  -12.06,     0.0187,    31.78,LEFT  , 1.3568E-02,    13.18, 8.4090E-03,    15.57
 144.00,   360.00,   -6.40,  -20.60,   -6.24,     0.1951,   -65.82,LEFT  , 1.3679E-02,  -174.76, 2.8054E-02,   -23.25
 145.80,   360.00,   -2.72,  -21.21,   -2.66,     0.1189,    59.11,LEFT  , 2.4499E-02,  -153.65, 4.0260E-02,  -138.33
 147.60,   360.00,   -2.00,  -27.24,   -1.99,     0.0547,   -89.59,RIGHT , 2.8048E-03,    58.91, 5.0851E-02,   -38.50
 149.40,   360.00,   -8.05,  -21.73,   -7.87,     0.2072,    84.09,LEFT  , 5.8340E-03,     4.39, 2.5195E-02,    69.06
 151.20,   360.00,   -4.30,  -30.37,   -4.29,     0.0497,    86.08,RIGHT , 3.2962E-03,   -86.20, 3.8935E-02,  -122.34
 153.00,   360.00,    2.04,  -14.06,    2.15,     0.1566,   -84.11,LEFT  , 1.5106E-02,    93.33, 8.0577E-02,  -144.24
 154.80,   360.00,  -10.44,  -34.13,  -10.42,     0.0653,   -76.84,RIGHT , 4.5507E-03,   -56.23, 1.8746E-02,   140.26
 156.60,   360.00,    1.45,  -33.29,    1.45,     0.0183,    87.26,RIGHT , 3.8726E-03,    18.39, 7.5529E-02,    -2.61
 158.40,   360.00,   -7.68,  -25.32,   -7.60,     0.1312,    80.39,RIGHT , 5.5863E-03,    36.11, 2.6083E-02,    -2.93
 160.20,   360.00,   -2.06,  -16.30,   -1.90,     0.1940,    47.36,LEFT  , 3.4945E-02,   165.87, 3.7724E-02,  -172.09
 162.00,   360.00,    2.23,  -17.32,    2.28,     0.1054,    84.75,LEFT  , 1.1521E-02,   142.37, 8.2383E-02,  -168.19
 163.80,   360.00,    1.94,   -6.55,    2.52,     0.3763,    64.60,RIGHT , 4.3818E-02,    96.45, 7.3468E-02,    47.92
 165.60,   360.00,    7.73,  -22.36,    7.73,     0.0313,    81.40,LEFT  , 2.3782E-02,   -22.30, 1.5405E-01,   -10.34
 167.40,   360.00,    5.40,  -27.90,    5.40,     0.0216,    73.83,RIGHT , 3.3297E-02,   -93.80, 1.1449E-01,   -98.42
 169.20,   360.00,    4.44,  -18.09,    4.46,     0.0747,    68.26,RIGHT , 4.0194E-02,   173.65, 9.9117E-02,   161.32
 171.00,   360.00,    6.31,  -14.56,    6.34,     0.0905,    74.66,RIGHT , 3.6867E-02,    87.44, 1.2764E-01,    67.75
 172.80,   360.00,    4.37,  -15.40,    4.42,     0.1027,    71.52,RIGHT , 3.5119E-02,    26.99, 1.0050E-01,     7.94
 174.60,   360.00,    2.06,  -32.64,    2.07,     0.0184,    69.13,RIGHT , 2.8951E-02,   -86.22, 7.5854E-02,   -89.39
 176.40,   360.00,    2.86,  -29.03,    2.86,     0.0255,    74.70,RIGHT , 2.3566E-02,  -122.74, 8.5804E-02,  -128.45
 178.20,   360.00,   -7.49,  -17.06,   -7.03,     0.3321,    77.06,RIGHT , 1.0638E-02,   155.45, 2.6415E-02,    95.77
 180.00,   360.00,    2.26,  -13.30,    2.38,     0.1667,    70.38,RIGHT , 3.0790E-02,   106.42, 7.8388E-02,    77.96








*****  DATA CARD N0.   5 EN   0   101   201     0  0.00000E+00  0.00000E+00  1.80000E+00  1.80000E+00  0.00000E+00  0.00000E+00

  TOTAL RUN TIME: 1260 msec